
097|LMW3_p|sdf|97|dock10
  -GOLD-   6 72218493D 1   1.00000     0.00000

106109  0  0  0  0  0  0  0  0  2 V2000
    7.5943   -2.4790    1.0782 O   0  0  0  0  0  0  0  0  0  0  0  0
    7.7299   -1.3845    0.5565 C   0  0  0  0  0  0  0  0  0  0  0  0
    8.6139   -1.2280   -0.4534 O   0  5  0  0  0  0  0  0  0  0  0  0
    6.9765   -0.0962    0.8680 C   0  0  2  0  0  0  0  0  0  0  0  0
    7.1944    0.3313    2.3186 C   0  0  0  0  0  0  0  0  0  0  0  0
    5.5124   -0.2872    0.4654 C   0  0  0  0  0  0  0  0  0  0  0  0
    6.2004    0.7133    3.1417 C   0  0  0  0  0  0  0  0  0  0  0  0
    8.6342    0.3622    2.8062 C   0  0  0  0  0  0  0  0  0  0  0  0
    8.8913   -0.5814    3.9905 C   0  0  0  0  0  0  0  0  0  0  0  0
   10.3960   -0.8907    4.2303 C   0  0  2  0  0  0  0  0  0  0  0  0
   11.2299    0.4284    4.2041 C   0  0  2  0  0  0  0  0  0  0  0  0
   10.8907   -1.9021    3.1903 C   0  0  0  0  0  0  0  0  0  0  0  0
   12.7922    0.3626    4.1816 C   0  0  2  0  0  0  0  0  0  0  0  0
   10.9491    1.3212    5.4524 C   0  0  0  0  0  0  0  0  0  0  0  0
   13.1723    1.8352    4.5973 C   0  0  1  0  0  0  0  0  0  0  0  0
   13.4922    0.0373    2.8356 C   0  0  1  0  0  0  0  0  0  0  0  0
   13.2714   -0.6926    5.2384 C   0  0  0  0  0  0  0  0  0  0  0  0
   12.2592    2.0385    5.8203 C   0  0  0  0  0  0  0  0  0  0  0  0
   14.6836    1.9770    4.7807 C   0  0  0  0  0  0  0  0  0  0  0  0
   12.7889    2.9533    3.5759 C   0  0  0  0  0  0  0  0  0  0  0  0
   12.8557    0.7034    1.7447 O   0  0  0  0  0  0  0  0  0  0  0  0
   14.9593    0.4167    2.9043 C   0  0  0  0  0  0  0  0  0  0  0  0
   15.5316    1.2357    3.8183 C   0  0  0  0  0  0  0  0  0  0  0  0
   15.2173    2.8070    5.6961 C   0  0  0  0  0  0  0  0  0  0  0  0
   13.7125    0.9365    0.6340 C   0  0  0  0  0  0  0  0  0  0  0  0
   17.0762    1.4059    3.9531 C   0  0  2  0  0  0  0  0  0  0  0  0
   16.6682    3.1842    5.7415 C   0  0  0  0  0  0  0  0  0  0  0  0
   17.3604    2.8880    4.3945 C   0  0  1  0  0  0  0  0  0  0  0  0
   17.8224    1.1064    2.6222 C   0  0  0  0  0  0  0  0  0  0  0  0
   17.5141    0.3393    4.9904 C   0  0  0  0  0  0  0  0  0  0  0  0
   18.8473    3.3971    4.3088 C   0  0  0  0  0  0  0  0  0  0  0  0
   19.2935    1.5304    2.6198 C   0  0  0  0  0  0  0  0  0  0  0  0
   19.4441    3.0228    2.9195 C   0  0  1  0  0  0  0  0  0  0  0  0
   19.7602    2.8702    5.4342 C   0  0  0  0  0  0  0  0  0  0  0  0
   18.8668    4.9463    4.4351 C   0  0  0  0  0  0  0  0  0  0  0  0
   18.7096    3.7343    1.8974 O   0  0  0  0  0  0  0  0  0  0  0  0
   19.4030    4.6139    1.1247 C   0  0  0  0  0  0  0  0  0  0  0  0
   20.5694    4.9385    1.2950 O   0  0  0  0  0  0  0  0  0  0  0  0
   18.5110    5.1250    0.0174 C   0  0  0  0  0  0  0  0  0  0  0  0
   18.2139    4.0618   -1.0549 C   0  0  1  0  0  0  0  0  0  0  0  0
   17.3954    3.0339   -0.4906 O   0  0  0  0  0  0  0  0  0  0  0  0
   17.4923    4.6867   -2.2648 C   0  0  0  0  0  0  0  0  0  0  0  0
   19.5093    3.4002   -1.5487 C   0  0  0  0  0  0  0  0  0  0  0  0
   18.4413    5.2553   -3.2909 C   0  0  0  0  0  0  0  0  0  0  0  0
   18.5681    4.7985   -4.4205 O   0  0  0  0  0  0  0  0  0  0  0  0
   19.1171    6.3226   -2.7893 O   0  0  0  0  0  0  0  0  0  0  0  0
   20.1985    6.7585   -3.6158 C   0  0  0  0  0  0  0  0  0  0  0  0
    7.3567    0.7238    0.2953 H   0  0  0  0  0  0  0  0  0  0  0  0
    5.0101    0.6572    0.4880 H   0  0  0  0  0  0  0  0  0  0  0  0
    5.0390   -0.9595    1.1501 H   0  0  0  0  0  0  0  0  0  0  0  0
    5.4645   -0.6932   -0.5235 H   0  0  0  0  0  0  0  0  0  0  0  0
    5.2222    0.6934    2.8134 H   0  0  0  0  0  0  0  0  0  0  0  0
    6.4163    1.0262    4.1011 H   0  0  0  0  0  0  0  0  0  0  0  0
    8.8693    1.3610    3.1097 H   0  0  0  0  0  0  0  0  0  0  0  0
    9.2515    0.0328    1.9967 H   0  0  0  0  0  0  0  0  0  0  0  0
    8.3828   -1.5040    3.8035 H   0  0  0  0  0  0  0  0  0  0  0  0
    8.5310   -0.0861    4.8678 H   0  0  0  0  0  0  0  0  0  0  0  0
   10.5222   -1.3286    5.1984 H   0  0  0  0  0  0  0  0  0  0  0  0
   10.8943    0.7995    3.2583 H   0  0  0  0  0  0  0  0  0  0  0  0
   11.8661   -2.2465    3.4636 H   0  0  0  0  0  0  0  0  0  0  0  0
   10.9342   -1.4334    2.2294 H   0  0  0  0  0  0  0  0  0  0  0  0
   10.2170   -2.7326    3.1518 H   0  0  0  0  0  0  0  0  0  0  0  0
   10.6252    0.7121    6.2703 H   0  0  0  0  0  0  0  0  0  0  0  0
   10.1801    2.0335    5.2376 H   0  0  0  0  0  0  0  0  0  0  0  0
   13.4122   -1.0162    2.6665 H   0  0  0  0  0  0  0  0  0  0  0  0
   12.4564   -1.3374    5.4935 H   0  0  0  0  0  0  0  0  0  0  0  0
   13.6147   -0.1871    6.1167 H   0  0  0  0  0  0  0  0  0  0  0  0
   14.0699   -1.2733    4.8259 H   0  0  0  0  0  0  0  0  0  0  0  0
   12.6960    1.6018    6.6941 H   0  0  0  0  0  0  0  0  0  0  0  0
   12.1054    3.0736    6.0434 H   0  0  0  0  0  0  0  0  0  0  0  0
   11.7314    2.9408    3.4135 H   0  0  0  0  0  0  0  0  0  0  0  0
   13.2942    2.7782    2.6491 H   0  0  0  0  0  0  0  0  0  0  0  0
   13.0786    3.9069    3.9655 H   0  0  0  0  0  0  0  0  0  0  0  0
   15.5804    0.0120    2.1863 H   0  0  0  0  0  0  0  0  0  0  0  0
   14.5898    3.2085    6.4104 H   0  0  0  0  0  0  0  0  0  0  0  0
   14.5185    1.5736    0.9328 H   0  0  0  0  0  0  0  0  0  0  0  0
   13.1585    1.4067   -0.1513 H   0  0  0  0  0  0  0  0  0  0  0  0
   14.1053    0.0045    0.2848 H   0  0  0  0  0  0  0  0  0  0  0  0
   17.1514    2.6230    6.5138 H   0  0  0  0  0  0  0  0  0  0  0  0
   16.7411    4.2334    5.9382 H   0  0  0  0  0  0  0  0  0  0  0  0
   16.9138    3.4930    3.6332 H   0  0  0  0  0  0  0  0  0  0  0  0
   17.3219    1.6264    1.8323 H   0  0  0  0  0  0  0  0  0  0  0  0
   17.8078    0.0443    2.4932 H   0  0  0  0  0  0  0  0  0  0  0  0
   18.5667    0.1678    4.9030 H   0  0  0  0  0  0  0  0  0  0  0  0
   16.9875   -0.5739    4.8071 H   0  0  0  0  0  0  0  0  0  0  0  0
   17.2903    0.6882    5.9769 H   0  0  0  0  0  0  0  0  0  0  0  0
   19.7137    1.3243    1.6576 H   0  0  0  0  0  0  0  0  0  0  0  0
   19.8041    0.9803    3.3824 H   0  0  0  0  0  0  0  0  0  0  0  0
   20.4831    3.2784    2.9310 H   0  0  0  0  0  0  0  0  0  0  0  0
   19.3947    3.2129    6.3797 H   0  0  0  0  0  0  0  0  0  0  0  0
   20.7560    3.2318    5.2844 H   0  0  0  0  0  0  0  0  0  0  0  0
   19.7633    1.8003    5.4194 H   0  0  0  0  0  0  0  0  0  0  0  0
   18.9213    5.2192    5.4683 H   0  0  0  0  0  0  0  0  0  0  0  0
   17.9737    5.3505    4.0061 H   0  0  0  0  0  0  0  0  0  0  0  0
   19.7188    5.3357    3.9180 H   0  0  0  0  0  0  0  0  0  0  0  0
   18.9929    5.9571   -0.4520 H   0  0  0  0  0  0  0  0  0  0  0  0
   17.5774    5.4020    0.4606 H   0  0  0  0  0  0  0  0  0  0  0  0
   17.2500    2.3378   -1.1502 H   0  0  0  0  0  0  0  0  0  0  0  0
   16.8585    5.4742   -1.9138 H   0  0  0  0  0  0  0  0  0  0  0  0
   16.9359    3.9072   -2.7420 H   0  0  0  0  0  0  0  0  0  0  0  0
   19.2980    2.8006   -2.4094 H   0  0  0  0  0  0  0  0  0  0  0  0
   19.9121    2.7823   -0.7736 H   0  0  0  0  0  0  0  0  0  0  0  0
   20.2202    4.1571   -1.8070 H   0  0  0  0  0  0  0  0  0  0  0  0
   20.8631    5.9393   -3.7951 H   0  0  0  0  0  0  0  0  0  0  0  0
   20.7287    7.5466   -3.1232 H   0  0  0  0  0  0  0  0  0  0  0  0
   19.8133    7.1159   -4.5479 H   0  0  0  0  0  0  0  0  0  0  0  0
  1  2  2  0  0  0  0
  2  3  1  0  0  0  0
  2  4  1  0  0  0  0
  4  5  1  0  0  0  0
  4  6  1  0  0  0  0
  4 48  1  0  0  0  0
  5  7  2  0  0  0  0
  5  8  1  0  0  0  0
  6 49  1  0  0  0  0
  6 50  1  0  0  0  0
  6 51  1  0  0  0  0
  7 52  1  0  0  0  0
  7 53  1  0  0  0  0
  8  9  1  0  0  0  0
  8 54  1  0  0  0  0
  8 55  1  0  0  0  0
  9 10  1  0  0  0  0
  9 56  1  0  0  0  0
  9 57  1  0  0  0  0
 10 11  1  0  0  0  0
 10 12  1  0  0  0  0
 10 58  1  0  0  0  0
 11 13  1  0  0  0  0
 11 14  1  0  0  0  0
 11 59  1  0  0  0  0
 12 60  1  0  0  0  0
 12 61  1  0  0  0  0
 12 62  1  0  0  0  0
 13 15  1  0  0  0  0
 13 16  1  0  0  0  0
 13 17  1  0  0  0  0
 14 18  1  0  0  0  0
 14 63  1  0  0  0  0
 14 64  1  0  0  0  0
 15 19  1  0  0  0  0
 15 20  1  0  0  0  0
 15 18  1  0  0  0  0
 16 21  1  0  0  0  0
 16 22  1  0  0  0  0
 16 65  1  0  0  0  0
 17 66  1  0  0  0  0
 17 67  1  0  0  0  0
 17 68  1  0  0  0  0
 18 69  1  0  0  0  0
 18 70  1  0  0  0  0
 19 23  1  0  0  0  0
 19 24  2  0  0  0  0
 20 71  1  0  0  0  0
 20 72  1  0  0  0  0
 20 73  1  0  0  0  0
 21 25  1  0  0  0  0
 22 23  2  0  0  0  0
 22 74  1  0  0  0  0
 23 26  1  0  0  0  0
 24 27  1  0  0  0  0
 24 75  1  0  0  0  0
 25 76  1  0  0  0  0
 25 77  1  0  0  0  0
 25 78  1  0  0  0  0
 26 28  1  0  0  0  0
 26 29  1  0  0  0  0
 26 30  1  0  0  0  0
 27 28  1  0  0  0  0
 27 79  1  0  0  0  0
 27 80  1  0  0  0  0
 28 31  1  0  0  0  0
 28 81  1  0  0  0  0
 29 32  1  0  0  0  0
 29 82  1  0  0  0  0
 29 83  1  0  0  0  0
 30 84  1  0  0  0  0
 30 85  1  0  0  0  0
 30 86  1  0  0  0  0
 31 33  1  0  0  0  0
 31 34  1  0  0  0  0
 31 35  1  0  0  0  0
 32 33  1  0  0  0  0
 32 87  1  0  0  0  0
 32 88  1  0  0  0  0
 33 36  1  0  0  0  0
 33 89  1  0  0  0  0
 34 90  1  0  0  0  0
 34 91  1  0  0  0  0
 34 92  1  0  0  0  0
 35 93  1  0  0  0  0
 35 94  1  0  0  0  0
 35 95  1  0  0  0  0
 36 37  1  0  0  0  0
 37 38  2  0  0  0  0
 37 39  1  0  0  0  0
 39 40  1  0  0  0  0
 39 96  1  0  0  0  0
 39 97  1  0  0  0  0
 40 41  1  0  0  0  0
 40 42  1  0  0  0  0
 40 43  1  0  0  0  0
 41 98  1  0  0  0  0
 42 44  1  0  0  0  0
 42 99  1  0  0  0  0
 42100  1  0  0  0  0
 43101  1  0  0  0  0
 43102  1  0  0  0  0
 43103  1  0  0  0  0
 44 45  2  0  0  0  0
 44 46  1  0  0  0  0
 46 47  1  0  0  0  0
 47104  1  0  0  0  0
 47105  1  0  0  0  0
 47106  1  0  0  0  0
M  CHG  1   3  -1
M  END
>  <Code-name>
097

>  <Compound>
Piptolinic acid A

>  <Specie>
Piptoporus betulinus

>  <Reference>
Tohtahon (2017) e GrÃ¼ndemann (2020)

>  <Organism>
Cytotoxic Activity

>  <Smiles>
C[C@H](CCC([C@H](C)C(O)=O)=C)[C@@H](CC1)[C@]2(C)[C@]1(C)C1=CC[C@@H](C(C)(C)[C@@H](CC3)OC(C[C@](C)(CC(OC)=O)O)=O)[C@@]3(C)C1=C[C@@H]2OC

>  <MMFF94 Energy>
110.59

>  <Total Molweight>
656.897

>  <Molweight>
656.897

>  <Monoisotopic Mass>
656.428820

>  <cLogP>
7.0889

>  <cLogS>
-6.289

>  <H-Acceptors>
8

>  <H-Donors>
2

>  <Total Surface Area>
501.11

>  <Relative PSA>
0.19022

>  <Polar Surface Area>
119.36

>  <Druglikeness>
-6.9325

>  <Mutagenic>
none

>  <Tumorigenic>
none

>  <Reproductive Effective>
none

>  <Irritant>
none

>  <Nasty Functions>


>  <Shape Index>
0.51064

>  <Molecular Flexibility>
0.4344

>  <Molecular Complexity>
1.0469

>  <Fragments>
1

>  <Non-H Atoms>
47

>  <Non-C/H Atoms>
8

>  <Metal-Atoms>
0

>  <Electronegative Atoms>
8

>  <Stereo Centers>
10

>  <Rotatable Bonds>
14

>  <Rings Closures>
4

>  <Small Rings>
4

>  <Aromatic Rings>
0

>  <Aromatic Atoms>
0

>  <sp3-Atoms>
35

>  <Symmetric atoms>
1

>  <Amides>
0

>  <Amines>
0

>  <Alkyl-Amines>
0

>  <Aromatic Amines>
0

>  <Aromatic Nitrogens>
0

>  <Basic Nitrogens>
0

>  <Acidic Oxygens>
1

>  <Stereo Configuration>
this enantiomer

> <Gold.Version>
5.8.1

> <Gold.Id.Protein>
ID_2|Prot_COX2_5IKQ_Alig|mol2

> <Gold.Goldscore.Fitness>
-70.7747

> <Gold.Goldscore.Internal.Vdw>
-42.8143

> <Gold.Goldscore.Internal.Torsion>
-16.8380

> <Gold.Goldscore.External.Vdw>
-39.2905

> <Gold.Goldscore.Internal.HBond>
0.0000

> <Gold.Goldscore.External.HBond>
5.9889

> <Gold.Goldscore.Internal.Correction>
-36.9131

> <Gold.Goldscore.Hbonds>
donor molecule, donor type, donor heavy atom, donor atom, acceptor molecule, acceptor atom, score
      L1  H    41    98       P1  7951  1.00

> <Gold.Goldscore.Internal.Vdw.Weighted>
-42.8143

> <Gold.Goldscore.Internal.Torsion.Weighted>
-16.8380

> <Gold.Goldscore.External.Vdw.Weighted>
-54.0244

> <Gold.Goldscore.Internal.HBond.Weighted>
0.0000

> <Gold.Goldscore.External.HBond.Weighted>
5.9889

> <Gold.Goldscore.Internal.Correction.Weighted>
-36.9131

> <Gold.Protein.RotatedTorsions>
[ 5077 5068 5067 5065 ] final   64.67 input  179.94 | X-H torsion
[ 5157 5152 5151 5148 ] final  173.20 input -179.92 | X-H torsion
[ 5185 5176 5175 5173 ] final   18.39 input -179.99 | X-H torsion
[ 5712 5703 5702 5700 ] final  179.54 input  180.00 | X-H torsion
[ 8036 8031 8030 8027 ] final -121.92 input -179.94 | X-H torsion
[ 2749 2745 2743 2740 ] final   -8.36 input  -60.05 | X-H torsion
[ 1366 1361 1360 1357 ] final   50.81 input  -60.09 | X-H torsion
[ 2556 2551 2550 2547 ] final -179.86 input   59.97 | X-H torsion

> <Gold.Protein.ActiveResidues>
 PRO86   VAL89   HIS90   LEU93   THR94   ILE112  MET113  TYR115  VAL116  LEU117 
 THR118  SER119  ARG120  SER121  LEU123  ILE124  GLN192  SER194  PHE198  PHE201 
 ALA202  GLN203  PHE205  THR206  PHE209  PHE210  VAL228  ILE341  ILE343  VAL344 
 ILE345  GLU346  ASP347  TYR348  VAL349  GLN350  HIS351  LEU352  SER353  GLY354 
 TYR355  PHE357  LEU359  LYS360  GLU380  PHE381  ASN382  THR383  LEU384  TYR385 
 HIS386  TRP387  LEU390  VAL434  LEU507  ARG513  ALA516  ILE517  PHE518  GLY519 
 GLU520  THR521  MET522  VAL523  GLU524  VAL525  GLY526  ALA527  PRO528  PHE529 
 SER530  LEU531  LYS532  GLY533  LEU534  MET535  COH609 

> <Gold.Protein.RotatedAtoms>
   17.8764    7.1759    1.9368 H   0  0  0  0  0  0  0  0  0  0  0  0  # atno 1366 bound_to 1361
    4.5864   -9.1983    6.6737 H   0  0  0  0  0  0  0  0  0  0  0  0  # atno 2556 bound_to 2551
   -4.0690    0.1550    1.0492 H   0  0  0  0  0  0  0  0  0  0  0  0  # atno 2749 bound_to 2745
    0.6796   -1.7890    4.0819 H   0  0  0  0  0  0  0  0  0  0  0  0  # atno 5077 bound_to 5068
   12.4847   -1.4042    9.2101 H   0  0  0  0  0  0  0  0  0  0  0  0  # atno 5157 bound_to 5152
   15.8040   -1.1127    4.6592 H   0  0  0  0  0  0  0  0  0  0  0  0  # atno 5185 bound_to 5176
    2.7319    0.3013    2.3881 H   0  0  0  0  0  0  0  0  0  0  0  0  # atno 5712 bound_to 5703
    6.2436    4.3223    3.7086 H   0  0  0  0  0  0  0  0  0  0  0  0  # atno 8036 bound_to 8031
    1.5915   -2.9782    4.2066 LP  0  0  0  0  0  0  0  0  0  0  0  0  # atno 8267 bound_to 5068
    2.0792   -1.5481    3.5875 LP  0  0  0  0  0  0  0  0  0  0  0  0  # atno 8268 bound_to 5068
   12.6865   -2.8956    9.2194 LP  0  0  0  0  0  0  0  0  0  0  0  0  # atno 8279 bound_to 5152
   11.2152   -2.1998    9.3527 LP  0  0  0  0  0  0  0  0  0  0  0  0  # atno 8280 bound_to 5152
   16.6490    0.0623    5.0642 LP  0  0  0  0  0  0  0  0  0  0  0  0  # atno 8281 bound_to 5176
   15.0298    0.1573    4.8749 LP  0  0  0  0  0  0  0  0  0  0  0  0  # atno 8282 bound_to 5176
    2.6873   -1.1782    2.6488 LP  0  0  0  0  0  0  0  0  0  0  0  0  # atno 8283 bound_to 5703
    1.4053   -0.1958    2.8899 LP  0  0  0  0  0  0  0  0  0  0  0  0  # atno 8284 bound_to 5703
    4.9091    3.7660    3.2970 LP  0  0  0  0  0  0  0  0  0  0  0  0  # atno 8309 bound_to 8031
    5.2117    5.3680    3.3898 LP  0  0  0  0  0  0  0  0  0  0  0  0  # atno 8310 bound_to 8031
   -2.7870   -0.6264    0.9530 LP  0  0  0  0  0  0  0  0  0  0  0  0  # atno 8323 bound_to 2745
   -3.5507   -0.0122   -0.3532 LP  0  0  0  0  0  0  0  0  0  0  0  0  # atno 8324 bound_to 2745
   17.9061    7.7731    3.3175 LP  0  0  0  0  0  0  0  0  0  0  0  0  # atno 8335 bound_to 1361
   18.9071    6.5704    2.8506 LP  0  0  0  0  0  0  0  0  0  0  0  0  # atno 8336 bound_to 1361
    5.2797  -10.3045    7.4219 LP  0  0  0  0  0  0  0  0  0  0  0  0  # atno 8342 bound_to 2551
    4.7641   -8.9337    8.1442 LP  0  0  0  0  0  0  0  0  0  0  0  0  # atno 8343 bound_to 2551

