
009|LMW3_p|sdf|9|dock1
  -GOLD-   6 62220 93D 1   1.00000     0.00000

 73 77  0  0  0  0  0  0  0  0  1 V2000
    8.7092   -1.0480    0.7003 O   0  0  0  0  0  0  0  0  0  0  0  0
    7.7074   -0.9391    1.7362 C   0  0  1  0  0  0  0  0  0  0  0  0
    8.8020   -1.9630    1.8049 C   0  0  2  0  0  0  0  0  0  0  0  0
    7.8205    0.3217    2.6047 C   0  0  1  0  0  0  0  0  0  0  0  0
    6.3441   -1.3160    1.2289 C   0  0  0  0  0  0  0  0  0  0  0  0
    9.9802   -1.7424    2.6964 C   0  0  2  0  0  0  0  0  0  0  0  0
    9.2817    0.6621    3.0327 C   0  0  0  0  0  0  0  0  0  0  0  0
    7.1510    1.4763    1.7989 C   0  0  0  0  0  0  0  0  0  0  0  0
    7.0470    0.0932    3.9288 C   0  0  0  0  0  0  0  0  0  0  0  0
    5.7219   -0.1498    0.4614 C   0  0  2  0  0  0  0  0  0  0  0  0
    9.7917   -2.5446    3.8647 O   0  0  0  0  0  0  0  0  0  0  0  0
   10.2386   -0.3006    3.1220 C   0  0  0  0  0  0  0  0  0  0  0  0
    9.5683    2.1061    3.4230 C   0  0  0  0  0  0  0  0  0  0  0  0
    5.7478    1.1415    1.2784 C   0  0  0  0  0  0  0  0  0  0  0  0
    4.3754   -0.4592    0.1102 O   0  0  0  0  0  0  0  0  0  0  0  0
   11.5520    0.0190    3.6699 C   0  0  0  0  0  0  0  0  0  0  0  0
   11.0494    2.4346    3.6421 C   0  0  0  0  0  0  0  0  0  0  0  0
   12.6746   -0.7133    3.6354 C   0  0  0  0  0  0  0  0  0  0  0  0
   11.7800    1.3284    4.4102 C   0  0  2  0  0  0  0  0  0  0  0  0
   13.8216   -0.0063    4.2804 C   0  0  0  0  0  0  0  0  0  0  0  0
   13.3360    1.4592    4.3164 C   0  0  2  0  0  0  0  0  0  0  0  0
   11.2674    1.1987    5.8583 C   0  0  0  0  0  0  0  0  0  0  0  0
   14.0721    2.2985    5.3914 C   0  0  1  0  0  0  0  0  0  0  0  0
   15.5743    2.1863    5.2162 C   0  0  0  0  0  0  0  0  0  0  0  0
   13.7061    3.7841    5.3427 C   0  0  0  0  0  0  0  0  0  0  0  0
   16.3198    3.0843    4.5514 C   0  0  0  0  0  0  0  0  0  0  0  0
   17.8215    2.9759    4.3885 C   0  0  1  0  0  0  0  0  0  0  0  0
   18.2913    3.5958    3.0431 C   0  0  0  0  0  0  0  0  0  0  0  0
   18.5029    3.5722    5.6243 C   0  0  0  0  0  0  0  0  0  0  0  0
   18.2645    5.1278    3.0112 C   0  0  0  0  0  0  0  0  0  0  0  0
   19.6911    3.1037    2.6578 C   0  0  0  0  0  0  0  0  0  0  0  0
    8.8058   -3.0214    1.9619 H   0  0  0  0  0  0  0  0  0  0  0  0
    5.7164   -1.5679    2.0579 H   0  0  0  0  0  0  0  0  0  0  0  0
    6.4374   -2.1549    0.5713 H   0  0  0  0  0  0  0  0  0  0  0  0
   10.8421   -2.0135    2.1233 H   0  0  0  0  0  0  0  0  0  0  0  0
    7.7746    1.7073    0.9607 H   0  0  0  0  0  0  0  0  0  0  0  0
    7.0430    2.3012    2.4718 H   0  0  0  0  0  0  0  0  0  0  0  0
    6.0535   -0.2378    3.7089 H   0  0  0  0  0  0  0  0  0  0  0  0
    7.0040    1.0096    4.4794 H   0  0  0  0  0  0  0  0  0  0  0  0
    7.5497   -0.6500    4.5118 H   0  0  0  0  0  0  0  0  0  0  0  0
    6.3045    0.0014   -0.4232 H   0  0  0  0  0  0  0  0  0  0  0  0
   10.5610   -2.4519    4.4482 H   0  0  0  0  0  0  0  0  0  0  0  0
    9.0437    2.3149    4.3319 H   0  0  0  0  0  0  0  0  0  0  0  0
    9.2462    2.7087    2.5996 H   0  0  0  0  0  0  0  0  0  0  0  0
    5.4098    1.9464    0.6596 H   0  0  0  0  0  0  0  0  0  0  0  0
    5.1097    1.0039    2.1262 H   0  0  0  0  0  0  0  0  0  0  0  0
    4.3695   -1.1506   -0.5701 H   0  0  0  0  0  0  0  0  0  0  0  0
   11.1216    3.3458    4.1984 H   0  0  0  0  0  0  0  0  0  0  0  0
   11.5109    2.5273    2.6812 H   0  0  0  0  0  0  0  0  0  0  0  0
   12.7386   -1.6530    3.2137 H   0  0  0  0  0  0  0  0  0  0  0  0
   14.7130   -0.1037    3.6966 H   0  0  0  0  0  0  0  0  0  0  0  0
   14.0735   -0.3952    5.2448 H   0  0  0  0  0  0  0  0  0  0  0  0
   13.5791    2.0406    3.4517 H   0  0  0  0  0  0  0  0  0  0  0  0
   10.3332    0.6771    5.8605 H   0  0  0  0  0  0  0  0  0  0  0  0
   11.1325    2.1738    6.2776 H   0  0  0  0  0  0  0  0  0  0  0  0
   11.9808    0.6552    6.4418 H   0  0  0  0  0  0  0  0  0  0  0  0
   13.7621    1.9004    6.3349 H   0  0  0  0  0  0  0  0  0  0  0  0
   16.0521    1.3718    5.6324 H   0  0  0  0  0  0  0  0  0  0  0  0
   12.8055    3.9479    5.8967 H   0  0  0  0  0  0  0  0  0  0  0  0
   13.5582    4.0817    4.3256 H   0  0  0  0  0  0  0  0  0  0  0  0
   14.4987    4.3610    5.7715 H   0  0  0  0  0  0  0  0  0  0  0  0
   15.8419    3.8946    4.1273 H   0  0  0  0  0  0  0  0  0  0  0  0
   18.1138    1.9482    4.3305 H   0  0  0  0  0  0  0  0  0  0  0  0
   17.5736    3.2574    2.3251 H   0  0  0  0  0  0  0  0  0  0  0  0
   19.5603    3.4234    5.5553 H   0  0  0  0  0  0  0  0  0  0  0  0
   18.1315    3.0896    6.5041 H   0  0  0  0  0  0  0  0  0  0  0  0
   18.2929    4.6201    5.6767 H   0  0  0  0  0  0  0  0  0  0  0  0
   18.9811    5.5117    3.7069 H   0  0  0  0  0  0  0  0  0  0  0  0
   17.2875    5.4730    3.2784 H   0  0  0  0  0  0  0  0  0  0  0  0
   18.5060    5.4683    2.0260 H   0  0  0  0  0  0  0  0  0  0  0  0
   19.9490    3.4832    1.6911 H   0  0  0  0  0  0  0  0  0  0  0  0
   19.6994    2.0340    2.6349 H   0  0  0  0  0  0  0  0  0  0  0  0
   20.4020    3.4506    3.3784 H   0  0  0  0  0  0  0  0  0  0  0  0
  1  3  1  0  0  0  0
  2  1  1  0  0  0  0
  2  4  1  0  0  0  0
  2  5  1  0  0  0  0
  2  3  1  0  0  0  0
  3  6  1  0  0  0  0
  3 32  1  0  0  0  0
  4  7  1  0  0  0  0
  4  8  1  0  0  0  0
  4  9  1  0  0  0  0
  5 10  1  0  0  0  0
  5 33  1  0  0  0  0
  5 34  1  0  0  0  0
  6 11  1  0  0  0  0
  6 12  1  0  0  0  0
  6 35  1  0  0  0  0
  7 13  1  0  0  0  0
  7 12  2  0  0  0  0
  8 14  1  0  0  0  0
  8 36  1  0  0  0  0
  8 37  1  0  0  0  0
  9 38  1  0  0  0  0
  9 39  1  0  0  0  0
  9 40  1  0  0  0  0
 10 15  1  0  0  0  0
 10 14  1  0  0  0  0
 10 41  1  0  0  0  0
 11 42  1  0  0  0  0
 12 16  1  0  0  0  0
 13 17  1  0  0  0  0
 13 43  1  0  0  0  0
 13 44  1  0  0  0  0
 14 45  1  0  0  0  0
 14 46  1  0  0  0  0
 15 47  1  0  0  0  0
 16 18  2  0  0  0  0
 16 19  1  0  0  0  0
 17 19  1  0  0  0  0
 17 48  1  0  0  0  0
 17 49  1  0  0  0  0
 18 20  1  0  0  0  0
 18 50  1  0  0  0  0
 19 21  1  0  0  0  0
 19 22  1  0  0  0  0
 20 21  1  0  0  0  0
 20 51  1  0  0  0  0
 20 52  1  0  0  0  0
 21 23  1  0  0  0  0
 21 53  1  0  0  0  0
 22 54  1  0  0  0  0
 22 55  1  0  0  0  0
 22 56  1  0  0  0  0
 23 24  1  0  0  0  0
 23 25  1  0  0  0  0
 23 57  1  0  0  0  0
 24 26  2  0  0  0  0
 24 58  1  0  0  0  0
 25 59  1  0  0  0  0
 25 60  1  0  0  0  0
 25 61  1  0  0  0  0
 26 27  1  0  0  0  0
 26 62  1  0  0  0  0
 27 28  1  0  0  0  0
 27 29  1  0  0  0  0
 27 63  1  0  0  0  0
 28 30  1  0  0  0  0
 28 31  1  0  0  0  0
 28 64  1  0  0  0  0
 29 65  1  0  0  0  0
 29 66  1  0  0  0  0
 29 67  1  0  0  0  0
 30 68  1  0  0  0  0
 30 69  1  0  0  0  0
 30 70  1  0  0  0  0
 31 71  1  0  0  0  0
 31 72  1  0  0  0  0
 31 73  1  0  0  0  0
M  END
>  <Code-name>
009

>  <Compound>
(22E)-5α,6α-epoxyergosta-8,14,22-triene-3β,7β-diol

>  <Specie>
Pleurotus eryngii

>  <Reference>
KIKUCHI et al., 2021

>  <Organism>
Aromatase Inhibitor

>  <Smiles>
CC(C)[C@@H](C)/C=C/[C@@H](C)[C@@H]1[C@@](C)(CCC([C@@](C)(CC[C@@H](C2)O)[C@]22O[C@@H]22)=C3[C@H]2O)C3=CC1

>  <MMFF94 Energy>
93.021

>  <Total Molweight>
426.638

>  <Molweight>
426.638

>  <Monoisotopic Mass>
426.313395

>  <cLogP>
5.2418

>  <cLogS>
-5.104

>  <H-Acceptors>
3

>  <H-Donors>
2

>  <Total Surface Area>
325.33

>  <Relative PSA>
0.13479

>  <Polar Surface Area>
52.99

>  <Druglikeness>
-0.51128

>  <Mutagenic>
high

>  <Tumorigenic>
none

>  <Reproductive Effective>
low

>  <Irritant>
none

>  <Nasty Functions>
oxiran/aziridine

>  <Shape Index>
0.51613

>  <Molecular Flexibility>
0.30596

>  <Molecular Complexity>
1.0381

>  <Fragments>
1

>  <Non-H Atoms>
31

>  <Non-C/H Atoms>
3

>  <Metal-Atoms>
0

>  <Electronegative Atoms>
3

>  <Stereo Centers>
9

>  <Rotatable Bonds>
4

>  <Rings Closures>
5

>  <Small Rings>
6

>  <Aromatic Rings>
0

>  <Aromatic Atoms>
0

>  <sp3-Atoms>
25

>  <Symmetric atoms>
1

>  <Amides>
0

>  <Amines>
0

>  <Alkyl-Amines>
0

>  <Aromatic Amines>
0

>  <Aromatic Nitrogens>
0

>  <Basic Nitrogens>
0

>  <Acidic Oxygens>
0

>  <Stereo Configuration>
this enantiomer

> <Gold.Version>
5.8.1

> <Gold.Id.Protein>
ID_2|Prot_COX2_5IKQ_Alig|mol2

> <Gold.Goldscore.Fitness>
2.3697

> <Gold.Goldscore.Internal.Vdw>
-13.1747

> <Gold.Goldscore.Internal.Torsion>
-4.1640

> <Gold.Goldscore.External.Vdw>
5.6659

> <Gold.Goldscore.Internal.HBond>
0.0000

> <Gold.Goldscore.External.HBond>
0.0000

> <Gold.Goldscore.Internal.Correction>
-11.9178

> <Gold.Goldscore.Internal.Vdw.Weighted>
-13.1747

> <Gold.Goldscore.Internal.Torsion.Weighted>
-4.1640

> <Gold.Goldscore.External.Vdw.Weighted>
7.7906

> <Gold.Goldscore.Internal.HBond.Weighted>
0.0000

> <Gold.Goldscore.External.HBond.Weighted>
0.0000

> <Gold.Goldscore.Internal.Correction.Weighted>
-11.9178

> <Gold.Protein.RotatedTorsions>
[ 5077 5068 5067 5065 ] final -154.16 input  179.94 | X-H torsion
[ 5157 5152 5151 5148 ] final -167.43 input -179.92 | X-H torsion
[ 5185 5176 5175 5173 ] final  -50.68 input -179.99 | X-H torsion
[ 5712 5703 5702 5700 ] final  129.08 input  180.00 | X-H torsion
[ 8036 8031 8030 8027 ] final  150.01 input -179.94 | X-H torsion
[ 2749 2745 2743 2740 ] final  155.86 input  -60.05 | X-H torsion
[ 1366 1361 1360 1357 ] final  -18.15 input  -60.09 | X-H torsion
[ 2556 2551 2550 2547 ] final  -67.38 input   59.97 | X-H torsion

> <Gold.Protein.ActiveResidues>
 PRO86   VAL89   HIS90   LEU93   THR94   ILE112  MET113  TYR115  VAL116  LEU117 
 THR118  SER119  ARG120  SER121  LEU123  ILE124  GLN192  SER194  PHE198  PHE201 
 ALA202  GLN203  PHE205  THR206  PHE209  PHE210  VAL228  ILE341  ILE343  VAL344 
 ILE345  GLU346  ASP347  TYR348  VAL349  GLN350  HIS351  LEU352  SER353  GLY354 
 TYR355  PHE357  LEU359  LYS360  GLU380  PHE381  ASN382  THR383  LEU384  TYR385 
 HIS386  TRP387  LEU390  VAL434  LEU507  ARG513  ALA516  ILE517  PHE518  GLY519 
 GLU520  THR521  MET522  VAL523  GLU524  VAL525  GLY526  ALA527  PRO528  PHE529 
 SER530  LEU531  LYS532  GLY533  LEU534  MET535  COH609 

> <Gold.Protein.RotatedAtoms>
   17.6488    7.7298    2.6019 H   0  0  0  0  0  0  0  0  0  0  0  0  # atno 1366 bound_to 1361
    4.6979   -8.9653    7.9621 H   0  0  0  0  0  0  0  0  0  0  0  0  # atno 2556 bound_to 2551
   -3.0383   -0.3007   -0.0363 H   0  0  0  0  0  0  0  0  0  0  0  0  # atno 2749 bound_to 2745
    2.1256   -1.8669    3.7356 H   0  0  0  0  0  0  0  0  0  0  0  0  # atno 5077 bound_to 5068
   12.2294   -1.3329    9.2327 H   0  0  0  0  0  0  0  0  0  0  0  0  # atno 5157 bound_to 5152
   16.5457   -0.6693    4.8858 H   0  0  0  0  0  0  0  0  0  0  0  0  # atno 5185 bound_to 5176
    3.0505   -0.2902    2.3753 H   0  0  0  0  0  0  0  0  0  0  0  0  # atno 5712 bound_to 5703
    5.3916    3.6968    3.4182 H   0  0  0  0  0  0  0  0  0  0  0  0  # atno 8036 bound_to 8031
    0.6862   -1.4730    3.9211 LP  0  0  0  0  0  0  0  0  0  0  0  0  # atno 8267 bound_to 5068
    1.2528   -2.9600    4.2877 LP  0  0  0  0  0  0  0  0  0  0  0  0  # atno 8268 bound_to 5068
   12.9128   -2.6736    9.2029 LP  0  0  0  0  0  0  0  0  0  0  0  0  # atno 8279 bound_to 5152
   11.2943   -2.5070    9.3423 LP  0  0  0  0  0  0  0  0  0  0  0  0  # atno 8280 bound_to 5152
   15.7014    0.5587    5.0801 LP  0  0  0  0  0  0  0  0  0  0  0  0  # atno 8281 bound_to 5176
   15.0868   -0.8715    4.5867 LP  0  0  0  0  0  0  0  0  0  0  0  0  # atno 8282 bound_to 5176
    1.9146   -1.1411    2.8695 LP  0  0  0  0  0  0  0  0  0  0  0  0  # atno 8283 bound_to 5703
    1.7957    0.4770    2.6845 LP  0  0  0  0  0  0  0  0  0  0  0  0  # atno 8284 bound_to 5703
    4.8103    5.0733    3.2530 LP  0  0  0  0  0  0  0  0  0  0  0  0  # atno 8309 bound_to 8031
    6.3327    4.8111    3.7822 LP  0  0  0  0  0  0  0  0  0  0  0  0  # atno 8310 bound_to 8031
   -4.3157    0.3260    0.4524 LP  0  0  0  0  0  0  0  0  0  0  0  0  # atno 8323 bound_to 2745
   -3.2566   -0.4188    1.4475 LP  0  0  0  0  0  0  0  0  0  0  0  0  # atno 8324 bound_to 2745
   18.7008    7.0721    3.4531 LP  0  0  0  0  0  0  0  0  0  0  0  0  # atno 8335 bound_to 1361
   18.3847    6.6088    1.9195 LP  0  0  0  0  0  0  0  0  0  0  0  0  # atno 8336 bound_to 1361
    4.6204   -9.2341    6.4836 LP  0  0  0  0  0  0  0  0  0  0  0  0  # atno 8342 bound_to 2551
    5.2900  -10.2830    7.5411 LP  0  0  0  0  0  0  0  0  0  0  0  0  # atno 8343 bound_to 2551

