
099|LMW3_p|sdf|99|dock231
  -GOLD-   6 72221223D 1   1.00000     0.00000

 85 87  0  0  0  0  0  0  0  0  2 V2000
   16.5133  -10.2481    5.6579 O   0  0  0  0  0  0  0  0  0  0  0  0
   16.0660   -9.4878    6.5011 C   0  0  0  0  0  0  0  0  0  0  0  0
   16.8845   -8.6535    7.1680 O   0  5  0  0  0  0  0  0  0  0  0  0
   14.6090   -9.3562    6.8883 C   0  0  1  0  0  0  0  0  0  0  0  0
   14.4396   -9.3187    8.4290 C   0  0  2  0  0  0  0  0  0  0  0  0
   14.0133   -8.1018    6.2087 C   0  0  0  0  0  0  0  0  0  0  0  0
   15.0976  -10.4444    9.2841 C   0  0  2  0  0  0  0  0  0  0  0  0
   12.9476   -9.3990    8.8689 C   0  0  0  0  0  0  0  0  0  0  0  0
   13.1850   -8.4440    4.9604 C   0  0  0  0  0  0  0  0  0  0  0  0
   14.3598  -10.2583   10.6614 C   0  0  1  0  0  0  0  0  0  0  0  0
   16.6030  -10.3341    9.5503 C   0  0  0  0  0  0  0  0  0  0  0  0
   14.8251  -11.8227    8.6057 C   0  0  0  0  0  0  0  0  0  0  0  0
   12.8972  -10.1892   10.1928 C   0  0  0  0  0  0  0  0  0  0  0  0
   12.6063   -7.2038    4.3032 C   0  0  0  0  0  0  0  0  0  0  0  0
   14.7704  -11.3384   11.6561 C   0  0  0  0  0  0  0  0  0  0  0  0
   14.6697   -8.9127   11.3958 C   0  0  0  0  0  0  0  0  0  0  0  0
   17.0650  -11.3675   10.6028 C   0  0  0  0  0  0  0  0  0  0  0  0
   11.4628   -6.6721    4.7715 C   0  0  0  0  0  0  0  0  0  0  0  0
   13.3810   -6.6451    3.1124 C   0  0  0  0  0  0  0  0  0  0  0  0
   16.0416  -11.8180   11.6553 C   0  0  0  0  0  0  0  0  0  0  0  0
   13.7279  -11.7448   12.6731 C   0  0  0  0  0  0  0  0  0  0  0  0
   13.5577   -5.1214    3.1225 C   0  0  0  0  0  0  0  0  0  0  0  0
   12.7310   -7.0800    1.7955 C   0  0  0  0  0  0  0  0  0  0  0  0
   16.5452  -12.8082   12.7431 C   0  0  2  0  0  0  0  0  0  0  0  0
   14.2767  -12.4958   13.8823 C   0  0  0  0  0  0  0  0  0  0  0  0
   15.3442  -13.5285   13.4888 C   0  0  1  0  0  0  0  0  0  0  0  0
   17.3696  -11.9184   13.7518 C   0  0  0  0  0  0  0  0  0  0  0  0
   17.5053  -13.8763   12.1629 C   0  0  0  0  0  0  0  0  0  0  0  0
   14.6673  -14.7540   12.8485 C   0  0  0  0  0  0  0  0  0  0  0  0
   17.9870  -12.6352   14.9590 C   0  0  0  0  0  0  0  0  0  0  0  0
   14.5029  -14.9569   11.5314 C   0  0  0  0  0  0  0  0  0  0  0  0
   14.1592  -15.7858   13.8270 C   0  0  0  0  0  0  0  0  0  0  0  0
   19.0648  -11.7996   15.6147 C   0  0  0  0  0  0  0  0  0  0  0  0
   19.0869  -11.4556   16.7873 O   0  0  0  0  0  0  0  0  0  0  0  0
   20.0223  -11.4956   14.6918 O   0  0  0  0  0  0  0  0  0  0  0  0
   21.1170  -10.7445   15.2180 C   0  0  0  0  0  0  0  0  0  0  0  0
   14.0715  -10.2157    6.5458 H   0  0  0  0  0  0  0  0  0  0  0  0
   14.9363   -8.3902    8.6186 H   0  0  0  0  0  0  0  0  0  0  0  0
   14.8152   -7.4542    5.9212 H   0  0  0  0  0  0  0  0  0  0  0  0
   13.3594   -7.6311    6.9128 H   0  0  0  0  0  0  0  0  0  0  0  0
   12.3725   -9.9029    8.1204 H   0  0  0  0  0  0  0  0  0  0  0  0
   12.5395   -8.4185    8.9992 H   0  0  0  0  0  0  0  0  0  0  0  0
   12.3815   -9.0904    5.2456 H   0  0  0  0  0  0  0  0  0  0  0  0
   13.8331   -8.9196    4.2543 H   0  0  0  0  0  0  0  0  0  0  0  0
   16.8224   -9.3500    9.9085 H   0  0  0  0  0  0  0  0  0  0  0  0
   17.1226  -10.5288    8.6354 H   0  0  0  0  0  0  0  0  0  0  0  0
   13.7981  -11.8781    8.3103 H   0  0  0  0  0  0  0  0  0  0  0  0
   15.0400  -12.6097    9.2980 H   0  0  0  0  0  0  0  0  0  0  0  0
   15.4503  -11.9257    7.7434 H   0  0  0  0  0  0  0  0  0  0  0  0
   12.5059  -11.1718   10.0311 H   0  0  0  0  0  0  0  0  0  0  0  0
   12.2612   -9.7253   10.9175 H   0  0  0  0  0  0  0  0  0  0  0  0
   14.4967   -8.0942   10.7287 H   0  0  0  0  0  0  0  0  0  0  0  0
   15.6922   -8.9058   11.7111 H   0  0  0  0  0  0  0  0  0  0  0  0
   14.0324   -8.8176   12.2500 H   0  0  0  0  0  0  0  0  0  0  0  0
   17.8957  -10.9418   11.1259 H   0  0  0  0  0  0  0  0  0  0  0  0
   17.2810  -12.2509   10.0390 H   0  0  0  0  0  0  0  0  0  0  0  0
   10.9887   -7.1001    5.5821 H   0  0  0  0  0  0  0  0  0  0  0  0
   11.0597   -5.8361    4.3202 H   0  0  0  0  0  0  0  0  0  0  0  0
   14.3640   -7.0584    3.2004 H   0  0  0  0  0  0  0  0  0  0  0  0
   13.0138  -12.3748   12.1851 H   0  0  0  0  0  0  0  0  0  0  0  0
   13.3015  -10.8379   13.0482 H   0  0  0  0  0  0  0  0  0  0  0  0
   13.9049   -4.8091    4.0852 H   0  0  0  0  0  0  0  0  0  0  0  0
   12.6193   -4.6521    2.9123 H   0  0  0  0  0  0  0  0  0  0  0  0
   14.2721   -4.8402    2.3772 H   0  0  0  0  0  0  0  0  0  0  0  0
   12.3694   -8.0826    1.8904 H   0  0  0  0  0  0  0  0  0  0  0  0
   13.4546   -7.0347    1.0086 H   0  0  0  0  0  0  0  0  0  0  0  0
   11.9149   -6.4265    1.5678 H   0  0  0  0  0  0  0  0  0  0  0  0
   13.4696  -13.0028   14.3686 H   0  0  0  0  0  0  0  0  0  0  0  0
   14.7356  -11.7806   14.5326 H   0  0  0  0  0  0  0  0  0  0  0  0
   15.8460  -13.9671   14.3260 H   0  0  0  0  0  0  0  0  0  0  0  0
   16.7137  -11.1603   14.1258 H   0  0  0  0  0  0  0  0  0  0  0  0
   18.2015  -11.5519   13.1874 H   0  0  0  0  0  0  0  0  0  0  0  0
   17.6020  -14.6841   12.8579 H   0  0  0  0  0  0  0  0  0  0  0  0
   18.4656  -13.4369   11.9909 H   0  0  0  0  0  0  0  0  0  0  0  0
   17.1115  -14.2457   11.2391 H   0  0  0  0  0  0  0  0  0  0  0  0
   18.4158  -13.5593   14.6316 H   0  0  0  0  0  0  0  0  0  0  0  0
   17.2129  -12.8052   15.6778 H   0  0  0  0  0  0  0  0  0  0  0  0
   14.8466  -14.2575   10.8548 H   0  0  0  0  0  0  0  0  0  0  0  0
   14.0327  -15.8120   11.1957 H   0  0  0  0  0  0  0  0  0  0  0  0
   14.9342  -16.4942   14.0328 H   0  0  0  0  0  0  0  0  0  0  0  0
   13.3159  -16.2921   13.4057 H   0  0  0  0  0  0  0  0  0  0  0  0
   13.8674  -15.3022   14.7358 H   0  0  0  0  0  0  0  0  0  0  0  0
   21.6103  -11.3164   15.9758 H   0  0  0  0  0  0  0  0  0  0  0  0
   20.7526   -9.8316   15.6407 H   0  0  0  0  0  0  0  0  0  0  0  0
   21.8080  -10.5228   14.4318 H   0  0  0  0  0  0  0  0  0  0  0  0
  1  2  2  0  0  0  0
  2  3  1  0  0  0  0
  2  4  1  0  0  0  0
  4  5  1  0  0  0  0
  4  6  1  0  0  0  0
  4 37  1  0  0  0  0
  5  7  1  0  0  0  0
  5  8  1  0  0  0  0
  5 38  1  0  0  0  0
  6  9  1  0  0  0  0
  6 39  1  0  0  0  0
  6 40  1  0  0  0  0
  7 10  1  0  0  0  0
  7 11  1  0  0  0  0
  7 12  1  0  0  0  0
  8 13  1  0  0  0  0
  8 41  1  0  0  0  0
  8 42  1  0  0  0  0
  9 14  1  0  0  0  0
  9 43  1  0  0  0  0
  9 44  1  0  0  0  0
 10 15  1  0  0  0  0
 10 16  1  0  0  0  0
 10 13  1  0  0  0  0
 11 17  1  0  0  0  0
 11 45  1  0  0  0  0
 11 46  1  0  0  0  0
 12 47  1  0  0  0  0
 12 48  1  0  0  0  0
 12 49  1  0  0  0  0
 13 50  1  0  0  0  0
 13 51  1  0  0  0  0
 14 18  2  0  0  0  0
 14 19  1  0  0  0  0
 15 20  2  0  0  0  0
 15 21  1  0  0  0  0
 16 52  1  0  0  0  0
 16 53  1  0  0  0  0
 16 54  1  0  0  0  0
 17 20  1  0  0  0  0
 17 55  1  0  0  0  0
 17 56  1  0  0  0  0
 18 57  1  0  0  0  0
 18 58  1  0  0  0  0
 19 22  1  0  0  0  0
 19 23  1  0  0  0  0
 19 59  1  0  0  0  0
 20 24  1  0  0  0  0
 21 25  1  0  0  0  0
 21 60  1  0  0  0  0
 21 61  1  0  0  0  0
 22 62  1  0  0  0  0
 22 63  1  0  0  0  0
 22 64  1  0  0  0  0
 23 65  1  0  0  0  0
 23 66  1  0  0  0  0
 23 67  1  0  0  0  0
 24 26  1  0  0  0  0
 24 27  1  0  0  0  0
 24 28  1  0  0  0  0
 25 26  1  0  0  0  0
 25 68  1  0  0  0  0
 25 69  1  0  0  0  0
 26 29  1  0  0  0  0
 26 70  1  0  0  0  0
 27 30  1  0  0  0  0
 27 71  1  0  0  0  0
 27 72  1  0  0  0  0
 28 73  1  0  0  0  0
 28 74  1  0  0  0  0
 28 75  1  0  0  0  0
 29 31  2  0  0  0  0
 29 32  1  0  0  0  0
 30 33  1  0  0  0  0
 30 76  1  0  0  0  0
 30 77  1  0  0  0  0
 31 78  1  0  0  0  0
 31 79  1  0  0  0  0
 32 80  1  0  0  0  0
 32 81  1  0  0  0  0
 32 82  1  0  0  0  0
 33 34  2  0  0  0  0
 33 35  1  0  0  0  0
 35 36  1  0  0  0  0
 36 83  1  0  0  0  0
 36 84  1  0  0  0  0
 36 85  1  0  0  0  0
M  CHG  1   3  -1
M  END
>  <Code-name>
099

>  <Compound>
Piptolinic acid C

>  <Specie>
Piptoporus betulinus

>  <Reference>
Tohtahon (2017) e GrÃ¼ndemann (2020)

>  <Organism>
Cytotoxic Activity

>  <Smiles>
CC(C)C(CC[C@H]([C@@H](CC1)[C@@](C)(CC2)[C@]1(C)C(CC1)=C2[C@@](C)(CCC(OC)=O)[C@@H]1C(C)=C)C(O)=O)=C

>  <MMFF94 Energy>
82.929

>  <Total Molweight>
498.745

>  <Molweight>
498.745

>  <Monoisotopic Mass>
498.370910

>  <cLogP>
8.2265

>  <cLogS>
-6.167

>  <H-Acceptors>
4

>  <H-Donors>
1

>  <Total Surface Area>
397.92

>  <Relative PSA>
0.12359

>  <Polar Surface Area>
63.6

>  <Druglikeness>
-30.312

>  <Mutagenic>
none

>  <Tumorigenic>
none

>  <Reproductive Effective>
none

>  <Irritant>
none

>  <Nasty Functions>


>  <Shape Index>
0.47222

>  <Molecular Flexibility>
0.46108

>  <Molecular Complexity>
0.99729

>  <Fragments>
1

>  <Non-H Atoms>
36

>  <Non-C/H Atoms>
4

>  <Metal-Atoms>
0

>  <Electronegative Atoms>
4

>  <Stereo Centers>
6

>  <Rotatable Bonds>
11

>  <Rings Closures>
3

>  <Small Rings>
3

>  <Aromatic Rings>
0

>  <Aromatic Atoms>
0

>  <sp3-Atoms>
26

>  <Symmetric atoms>
1

>  <Amides>
0

>  <Amines>
0

>  <Alkyl-Amines>
0

>  <Aromatic Amines>
0

>  <Aromatic Nitrogens>
0

>  <Basic Nitrogens>
0

>  <Acidic Oxygens>
1

>  <Stereo Configuration>
this enantiomer

> <Gold.Version>
5.8.1

> <Gold.Id.Protein>
ID_2|Prot_COX2_5IKQ_Alig|mol2

> <Gold.Goldscore.Fitness>
30.3667

> <Gold.Goldscore.Internal.Vdw>
-18.5585

> <Gold.Goldscore.Internal.Torsion>
-9.7734

> <Gold.Goldscore.External.Vdw>
25.9279

> <Gold.Goldscore.Internal.HBond>
0.0000

> <Gold.Goldscore.External.HBond>
0.7574

> <Gold.Goldscore.Internal.Correction>
-22.2902

> <Gold.Goldscore.Hbonds>
donor molecule, donor type, donor heavy atom, donor atom, acceptor molecule, acceptor atom, score
      P1  H   854   861       L1     1  0.13

> <Gold.Goldscore.Internal.Vdw.Weighted>
-18.5585

> <Gold.Goldscore.Internal.Torsion.Weighted>
-9.7734

> <Gold.Goldscore.External.Vdw.Weighted>
35.6509

> <Gold.Goldscore.Internal.HBond.Weighted>
0.0000

> <Gold.Goldscore.External.HBond.Weighted>
0.7574

> <Gold.Goldscore.Internal.Correction.Weighted>
-22.2902

> <Gold.Protein.RotatedTorsions>
[ 5077 5068 5067 5065 ] final    4.10 input  179.94 | X-H torsion
[ 5157 5152 5151 5148 ] final  152.14 input -179.92 | X-H torsion
[ 5185 5176 5175 5173 ] final   53.89 input -179.99 | X-H torsion
[ 5712 5703 5702 5700 ] final -137.31 input  180.00 | X-H torsion
[ 8036 8031 8030 8027 ] final  112.35 input -179.94 | X-H torsion
[ 2749 2745 2743 2740 ] final   74.54 input  -60.05 | X-H torsion
[ 1366 1361 1360 1357 ] final  -84.00 input  -60.09 | X-H torsion
[ 2556 2551 2550 2547 ] final  -92.00 input   59.97 | X-H torsion

> <Gold.Protein.ActiveResidues>
 PRO86   VAL89   HIS90   LEU93   THR94   ILE112  MET113  TYR115  VAL116  LEU117 
 THR118  SER119  ARG120  SER121  LEU123  ILE124  GLN192  SER194  PHE198  PHE201 
 ALA202  GLN203  PHE205  THR206  PHE209  PHE210  VAL228  ILE341  ILE343  VAL344 
 ILE345  GLU346  ASP347  TYR348  VAL349  GLN350  HIS351  LEU352  SER353  GLY354 
 TYR355  PHE357  LEU359  LYS360  GLU380  PHE381  ASN382  THR383  LEU384  TYR385 
 HIS386  TRP387  LEU390  VAL434  LEU507  ARG513  ALA516  ILE517  PHE518  GLY519 
 GLU520  THR521  MET522  VAL523  GLU524  VAL525  GLY526  ALA527  PRO528  PHE529 
 SER530  LEU531  LYS532  GLY533  LEU534  MET535  COH609 

> <Gold.Protein.RotatedAtoms>
   18.1297    7.6169    3.3047 H   0  0  0  0  0  0  0  0  0  0  0  0  # atno 1366 bound_to 1361
    4.5753   -8.8000    7.6953 H   0  0  0  0  0  0  0  0  0  0  0  0  # atno 2556 bound_to 2551
   -3.9304    0.2102    0.0142 H   0  0  0  0  0  0  0  0  0  0  0  0  # atno 2749 bound_to 2745
    0.8454   -2.5373    4.2972 H   0  0  0  0  0  0  0  0  0  0  0  0  # atno 5077 bound_to 5068
   12.7182   -1.5730    9.1883 H   0  0  0  0  0  0  0  0  0  0  0  0  # atno 5157 bound_to 5152
   15.3537   -0.9454    4.6470 H   0  0  0  0  0  0  0  0  0  0  0  0  # atno 5185 bound_to 5176
    2.1908    0.4575    2.5249 H   0  0  0  0  0  0  0  0  0  0  0  0  # atno 5712 bound_to 5703
    4.9677    3.9363    3.2696 H   0  0  0  0  0  0  0  0  0  0  0  0  # atno 8036 bound_to 8031
    2.2736   -2.4254    3.8399 LP  0  0  0  0  0  0  0  0  0  0  0  0  # atno 8267 bound_to 5068
    1.1984   -1.2048    3.6964 LP  0  0  0  0  0  0  0  0  0  0  0  0  # atno 8268 bound_to 5068
   12.3729   -3.0368    9.2443 LP  0  0  0  0  0  0  0  0  0  0  0  0  # atno 8279 bound_to 5152
   11.2495   -1.8567    9.3539 LP  0  0  0  0  0  0  0  0  0  0  0  0  # atno 8280 bound_to 5152
   16.7576   -0.4844    4.9215 LP  0  0  0  0  0  0  0  0  0  0  0  0  # atno 8281 bound_to 5176
   15.4619    0.5033    5.0321 LP  0  0  0  0  0  0  0  0  0  0  0  0  # atno 8282 bound_to 5176
    3.1478   -0.6989    2.4492 LP  0  0  0  0  0  0  0  0  0  0  0  0  # atno 8283 bound_to 5703
    1.5943   -0.8626    2.9252 LP  0  0  0  0  0  0  0  0  0  0  0  0  # atno 8284 bound_to 5703
    5.3000    5.3947    3.4202 LP  0  0  0  0  0  0  0  0  0  0  0  0  # atno 8309 bound_to 8031
    6.3515    4.2023    3.7932 LP  0  0  0  0  0  0  0  0  0  0  0  0  # atno 8310 bound_to 8031
   -3.7959   -0.1098    1.4781 LP  0  0  0  0  0  0  0  0  0  0  0  0  # atno 8323 bound_to 2745
   -2.7078   -0.5948    0.3613 LP  0  0  0  0  0  0  0  0  0  0  0  0  # atno 8324 bound_to 2745
   18.8645    6.4962    2.6205 LP  0  0  0  0  0  0  0  0  0  0  0  0  # atno 8335 bound_to 1361
   17.6457    7.3198    1.9113 LP  0  0  0  0  0  0  0  0  0  0  0  0  # atno 8336 bound_to 1361
    4.7827   -9.5992    6.4374 LP  0  0  0  0  0  0  0  0  0  0  0  0  # atno 8342 bound_to 2551
    5.2744  -10.1156    7.9065 LP  0  0  0  0  0  0  0  0  0  0  0  0  # atno 8343 bound_to 2551

