
100|LMW3_p|sdf|100|dock1
  -GOLD-   6 822 0193D 1   1.00000     0.00000

 75 78  0  0  0  0  0  0  0  0  2 V2000
    4.9988   -1.2781    2.9717 O   0  0  0  0  0  0  0  0  0  0  0  0
    6.0701   -0.8513    2.5371 C   0  0  0  0  0  0  0  0  0  0  0  0
    6.4142    0.6449    2.5214 C   0  0  0  0  0  0  0  0  0  0  0  0
    7.0456   -1.7984    1.8881 C   0  0  0  0  0  0  0  0  0  0  0  0
    7.9215    0.8352    2.9087 C   0  0  1  0  0  0  0  0  0  0  0  0
    5.5233    1.3423    3.5823 C   0  0  0  0  0  0  0  0  0  0  0  0
    6.0067    1.2136    1.1543 C   0  0  0  0  0  0  0  0  0  0  0  0
    8.4541   -1.5812    2.4166 C   0  0  0  0  0  0  0  0  0  0  0  0
    8.9720   -0.1271    2.2436 C   0  0  2  0  0  0  0  0  0  0  0  0
    8.3997    2.2982    2.8148 C   0  0  0  0  0  0  0  0  0  0  0  0
   10.3576    0.0805    2.9277 C   0  0  0  0  0  0  0  0  0  0  0  0
    9.2189    0.1475    0.7399 C   0  0  0  0  0  0  0  0  0  0  0  0
    9.7907    2.4449    3.3493 C   0  0  0  0  0  0  0  0  0  0  0  0
   10.6630    1.4281    3.4625 C   0  0  0  0  0  0  0  0  0  0  0  0
   11.2988   -0.8924    2.9831 C   0  0  0  0  0  0  0  0  0  0  0  0
   11.9930    1.5722    4.2025 C   0  0  1  0  0  0  0  0  0  0  0  0
   12.7258   -0.7086    3.4519 C   0  0  0  0  0  0  0  0  0  0  0  0
   13.1227    0.7792    3.4509 C   0  0  2  0  0  0  0  0  0  0  0  0
   12.6229    2.9710    4.3232 C   0  0  0  0  0  0  0  0  0  0  0  0
   11.7064    1.0798    5.6599 C   0  0  0  0  0  0  0  0  0  0  0  0
   14.4037    1.1520    4.2713 C   0  0  2  0  0  0  0  0  0  0  0  0
   13.2927    1.2379    1.9631 C   0  0  0  0  0  0  0  0  0  0  0  0
   14.0816    2.6245    4.5594 C   0  0  0  0  0  0  0  0  0  0  0  0
   15.7833    0.9524    3.6090 C   0  0  2  0  0  0  0  0  0  0  0  0
   14.8954    3.4528    4.9486 O   0  0  0  0  0  0  0  0  0  0  0  0
   15.8712   -0.4163    2.9750 C   0  0  0  0  0  0  0  0  0  0  0  0
   17.0132    1.0994    4.5358 C   0  0  0  0  0  0  0  0  0  0  0  0
   15.6005   -1.4812    3.5035 O   0  0  0  0  0  0  0  0  0  0  0  0
   16.3143   -0.3739    1.7051 O   0  5  0  0  0  0  0  0  0  0  0  0
   18.0509    2.1339    4.0872 C   0  0  0  0  0  0  0  0  0  0  0  0
   18.6254    1.7701    2.7454 C   0  0  0  0  0  0  0  0  0  0  0  0
   18.9817    2.6041    1.7492 C   0  0  0  0  0  0  0  0  0  0  0  0
   18.9114    4.1049    1.8112 C   0  0  0  0  0  0  0  0  0  0  0  0
   19.5117    2.0614    0.4476 C   0  0  0  0  0  0  0  0  0  0  0  0
    7.0403   -1.6350    0.8306 H   0  0  0  0  0  0  0  0  0  0  0  0
    6.7484   -2.8008    2.1155 H   0  0  0  0  0  0  0  0  0  0  0  0
    7.8979    0.5329    3.9348 H   0  0  0  0  0  0  0  0  0  0  0  0
    5.6898    2.3987    3.5491 H   0  0  0  0  0  0  0  0  0  0  0  0
    5.7715    0.9725    4.5552 H   0  0  0  0  0  0  0  0  0  0  0  0
    4.4940    1.1367    3.3744 H   0  0  0  0  0  0  0  0  0  0  0  0
    6.4534    2.1767    1.0211 H   0  0  0  0  0  0  0  0  0  0  0  0
    4.9415    1.3052    1.1092 H   0  0  0  0  0  0  0  0  0  0  0  0
    6.3411    0.5552    0.3800 H   0  0  0  0  0  0  0  0  0  0  0  0
    9.1159   -2.2394    1.8934 H   0  0  0  0  0  0  0  0  0  0  0  0
    8.4262   -1.7788    3.4678 H   0  0  0  0  0  0  0  0  0  0  0  0
    7.7393    2.9190    3.3835 H   0  0  0  0  0  0  0  0  0  0  0  0
    8.3978    2.5914    1.7858 H   0  0  0  0  0  0  0  0  0  0  0  0
    8.5097    0.8672    0.3877 H   0  0  0  0  0  0  0  0  0  0  0  0
    9.1074   -0.7625    0.1882 H   0  0  0  0  0  0  0  0  0  0  0  0
   10.2100    0.5275    0.6046 H   0  0  0  0  0  0  0  0  0  0  0  0
   10.0985    3.3833    3.6489 H   0  0  0  0  0  0  0  0  0  0  0  0
   11.0190   -1.8384    2.6799 H   0  0  0  0  0  0  0  0  0  0  0  0
   13.3805   -1.2453    2.7975 H   0  0  0  0  0  0  0  0  0  0  0  0
   12.8055   -1.0809    4.4520 H   0  0  0  0  0  0  0  0  0  0  0  0
   12.2117    3.5153    5.1476 H   0  0  0  0  0  0  0  0  0  0  0  0
   12.4552    3.6004    3.4744 H   0  0  0  0  0  0  0  0  0  0  0  0
   11.2666    0.1049    5.6270 H   0  0  0  0  0  0  0  0  0  0  0  0
   11.0330    1.7588    6.1398 H   0  0  0  0  0  0  0  0  0  0  0  0
   12.6236    1.0390    6.2094 H   0  0  0  0  0  0  0  0  0  0  0  0
   14.5504    0.5033    5.1096 H   0  0  0  0  0  0  0  0  0  0  0  0
   13.4209    2.2997    1.9297 H   0  0  0  0  0  0  0  0  0  0  0  0
   12.4216    0.9662    1.4043 H   0  0  0  0  0  0  0  0  0  0  0  0
   14.1517    0.7614    1.5389 H   0  0  0  0  0  0  0  0  0  0  0  0
   15.8310    1.7497    2.8970 H   0  0  0  0  0  0  0  0  0  0  0  0
   17.4989    0.1478    4.5940 H   0  0  0  0  0  0  0  0  0  0  0  0
   16.6362    1.4463    5.4751 H   0  0  0  0  0  0  0  0  0  0  0  0
   18.8410    2.1729    4.8078 H   0  0  0  0  0  0  0  0  0  0  0  0
   17.5713    3.0870    4.0070 H   0  0  0  0  0  0  0  0  0  0  0  0
   18.7628    0.7630    2.5670 H   0  0  0  0  0  0  0  0  0  0  0  0
   19.6940    4.5237    1.2137 H   0  0  0  0  0  0  0  0  0  0  0  0
   19.0266    4.4258    2.8254 H   0  0  0  0  0  0  0  0  0  0  0  0
   17.9636    4.4333    1.4387 H   0  0  0  0  0  0  0  0  0  0  0  0
   19.1874    1.0492    0.3248 H   0  0  0  0  0  0  0  0  0  0  0  0
   20.5812    2.0946    0.4565 H   0  0  0  0  0  0  0  0  0  0  0  0
   19.1432    2.6550   -0.3628 H   0  0  0  0  0  0  0  0  0  0  0  0
  1  2  2  0  0  0  0
  2  3  1  0  0  0  0
  2  4  1  0  0  0  0
  3  5  1  0  0  0  0
  3  6  1  0  0  0  0
  3  7  1  0  0  0  0
  4  8  1  0  0  0  0
  4 35  1  0  0  0  0
  4 36  1  0  0  0  0
  5  9  1  0  0  0  0
  5 10  1  0  0  0  0
  5 37  1  0  0  0  0
  6 38  1  0  0  0  0
  6 39  1  0  0  0  0
  6 40  1  0  0  0  0
  7 41  1  0  0  0  0
  7 42  1  0  0  0  0
  7 43  1  0  0  0  0
  8  9  1  0  0  0  0
  8 44  1  0  0  0  0
  8 45  1  0  0  0  0
  9 11  1  0  0  0  0
  9 12  1  0  0  0  0
 10 13  1  0  0  0  0
 10 46  1  0  0  0  0
 10 47  1  0  0  0  0
 11 14  1  0  0  0  0
 11 15  2  0  0  0  0
 12 48  1  0  0  0  0
 12 49  1  0  0  0  0
 12 50  1  0  0  0  0
 13 14  2  0  0  0  0
 13 51  1  0  0  0  0
 14 16  1  0  0  0  0
 15 17  1  0  0  0  0
 15 52  1  0  0  0  0
 16 18  1  0  0  0  0
 16 19  1  0  0  0  0
 16 20  1  0  0  0  0
 17 18  1  0  0  0  0
 17 53  1  0  0  0  0
 17 54  1  0  0  0  0
 18 21  1  0  0  0  0
 18 22  1  0  0  0  0
 19 23  1  0  0  0  0
 19 55  1  0  0  0  0
 19 56  1  0  0  0  0
 20 57  1  0  0  0  0
 20 58  1  0  0  0  0
 20 59  1  0  0  0  0
 21 24  1  0  0  0  0
 21 23  1  0  0  0  0
 21 60  1  0  0  0  0
 22 61  1  0  0  0  0
 22 62  1  0  0  0  0
 22 63  1  0  0  0  0
 23 25  2  0  0  0  0
 24 26  1  0  0  0  0
 24 27  1  0  0  0  0
 24 64  1  0  0  0  0
 26 28  2  0  0  0  0
 26 29  1  0  0  0  0
 27 30  1  0  0  0  0
 27 65  1  0  0  0  0
 27 66  1  0  0  0  0
 30 31  1  0  0  0  0
 30 67  1  0  0  0  0
 30 68  1  0  0  0  0
 31 32  2  0  0  0  0
 31 69  1  0  0  0  0
 32 33  1  0  0  0  0
 32 34  1  0  0  0  0
 33 70  1  0  0  0  0
 33 71  1  0  0  0  0
 33 72  1  0  0  0  0
 34 73  1  0  0  0  0
 34 74  1  0  0  0  0
 34 75  1  0  0  0  0
M  CHG  1  29  -1
M  END
>  <Code-name>
100

>  <Compound>
Piptolinic acid D

>  <Specie>
Piptoporus betulinus

>  <Reference>
Tohtahon (2017) e GrÃ¼ndemann (2020)

>  <Organism>
Cytotoxic Activity

>  <Smiles>
C[C@]1(C2)C3=CC[C@@H](C(C)(C)C(CC4)=O)[C@@]4(C)C3=CC[C@]1(C)[C@@H]([C@@H](CCC=C(C)C)C(O)=O)C2=O

>  <MMFF94 Energy>
55.225

>  <Total Molweight>
466.659

>  <Molweight>
466.659

>  <Monoisotopic Mass>
466.308310

>  <cLogP>
6.3052

>  <cLogS>
-5.403

>  <H-Acceptors>
4

>  <H-Donors>
1

>  <Total Surface Area>
354.51

>  <Relative PSA>
0.1473

>  <Polar Surface Area>
71.44

>  <Druglikeness>
-4.7396

>  <Mutagenic>
none

>  <Tumorigenic>
none

>  <Reproductive Effective>
none

>  <Irritant>
none

>  <Nasty Functions>


>  <Shape Index>
0.47059

>  <Molecular Flexibility>
0.31497

>  <Molecular Complexity>
1.0225

>  <Fragments>
1

>  <Non-H Atoms>
34

>  <Non-C/H Atoms>
4

>  <Metal-Atoms>
0

>  <Electronegative Atoms>
4

>  <Stereo Centers>
6

>  <Rotatable Bonds>
5

>  <Rings Closures>
4

>  <Small Rings>
4

>  <Aromatic Rings>
0

>  <Aromatic Atoms>
0

>  <sp3-Atoms>
22

>  <Symmetric atoms>
2

>  <Amides>
0

>  <Amines>
0

>  <Alkyl-Amines>
0

>  <Aromatic Amines>
0

>  <Aromatic Nitrogens>
0

>  <Basic Nitrogens>
0

>  <Acidic Oxygens>
1

>  <Stereo Configuration>
this enantiomer

> <Gold.Version>
5.8.1

> <Gold.Id.Protein>
ID_2|Prot_COX2_5IKQ_Alig|mol2

> <Gold.Goldscore.Fitness>
-27.0144

> <Gold.Goldscore.Internal.Vdw>
-18.7971

> <Gold.Goldscore.Internal.Torsion>
-9.9282

> <Gold.Goldscore.External.Vdw>
-17.2857

> <Gold.Goldscore.Internal.HBond>
0.0000

> <Gold.Goldscore.External.HBond>
2.9231

> <Gold.Goldscore.Internal.Correction>
-22.5554

> <Gold.Goldscore.Hbonds>
donor molecule, donor type, donor heavy atom, donor atom, acceptor molecule, acceptor atom, score
      P1  H  1374  1386       L1    25  0.06
      P1  H  1377  1390       L1    29  0.06
      P1  H  5068  5077       L1     1  0.16
      P1  H  5176  5185       L1    28  0.04
      P1  H  5703  5712       L1     1  0.70

> <Gold.Goldscore.Internal.Vdw.Weighted>
-18.7971

> <Gold.Goldscore.Internal.Torsion.Weighted>
-9.9282

> <Gold.Goldscore.External.Vdw.Weighted>
-23.7678

> <Gold.Goldscore.Internal.HBond.Weighted>
0.0000

> <Gold.Goldscore.External.HBond.Weighted>
2.9231

> <Gold.Goldscore.Internal.Correction.Weighted>
-22.5554

> <Gold.Protein.RotatedTorsions>
[ 5077 5068 5067 5065 ] final -151.56 input  179.94 | X-H torsion
[ 5157 5152 5151 5148 ] final -169.79 input -179.92 | X-H torsion
[ 5185 5176 5175 5173 ] final    4.76 input -179.99 | X-H torsion
[ 5712 5703 5702 5700 ] final  104.08 input  180.00 | X-H torsion
[ 8036 8031 8030 8027 ] final  -91.89 input -179.94 | X-H torsion
[ 2749 2745 2743 2740 ] final -124.78 input  -60.05 | X-H torsion
[ 1366 1361 1360 1357 ] final   65.43 input  -60.09 | X-H torsion
[ 2556 2551 2550 2547 ] final -146.33 input   59.97 | X-H torsion

> <Gold.Protein.ActiveResidues>
 PRO86   VAL89   HIS90   LEU93   THR94   ILE112  MET113  TYR115  VAL116  LEU117 
 THR118  SER119  ARG120  SER121  LEU123  ILE124  GLN192  SER194  PHE198  PHE201 
 ALA202  GLN203  PHE205  THR206  PHE209  PHE210  VAL228  ILE341  ILE343  VAL344 
 ILE345  GLU346  ASP347  TYR348  VAL349  GLN350  HIS351  LEU352  SER353  GLY354 
 TYR355  PHE357  LEU359  LYS360  GLU380  PHE381  ASN382  THR383  LEU384  TYR385 
 HIS386  TRP387  LEU390  VAL434  LEU507  ARG513  ALA516  ILE517  PHE518  GLY519 
 GLU520  THR521  MET522  VAL523  GLU524  VAL525  GLY526  ALA527  PRO528  PHE529 
 SER530  LEU531  LYS532  GLY533  LEU534  MET535  COH609 

> <Gold.Protein.RotatedAtoms>
   18.0100    7.0295    1.9027 H   0  0  0  0  0  0  0  0  0  0  0  0  # atno 1366 bound_to 1361
    4.4897   -8.8777    6.9829 H   0  0  0  0  0  0  0  0  0  0  0  0  # atno 2556 bound_to 2551
   -2.9052   -0.5061    0.9422 H   0  0  0  0  0  0  0  0  0  0  0  0  # atno 2749 bound_to 2745
    2.1373   -1.8998    3.7439 H   0  0  0  0  0  0  0  0  0  0  0  0  # atno 5077 bound_to 5068
   12.2616   -1.3369    9.2299 H   0  0  0  0  0  0  0  0  0  0  0  0  # atno 5157 bound_to 5152
   15.9886   -1.1022    4.6869 H   0  0  0  0  0  0  0  0  0  0  0  0  # atno 5185 bound_to 5176
    3.0041   -0.6229    2.4340 H   0  0  0  0  0  0  0  0  0  0  0  0  # atno 5712 bound_to 5703
    6.2187    4.7300    3.6969 H   0  0  0  0  0  0  0  0  0  0  0  0  # atno 8036 bound_to 8031
    0.7132   -1.4443    3.9042 LP  0  0  0  0  0  0  0  0  0  0  0  0  # atno 8267 bound_to 5068
    1.2119   -2.9494    4.2946 LP  0  0  0  0  0  0  0  0  0  0  0  0  # atno 8268 bound_to 5068
   12.8894   -2.7045    9.2045 LP  0  0  0  0  0  0  0  0  0  0  0  0  # atno 8279 bound_to 5152
   11.2792   -2.4714    9.3440 LP  0  0  0  0  0  0  0  0  0  0  0  0  # atno 8280 bound_to 5152
   16.5199    0.2420    5.0986 LP  0  0  0  0  0  0  0  0  0  0  0  0  # atno 8281 bound_to 5176
   14.9372   -0.0350    4.8072 LP  0  0  0  0  0  0  0  0  0  0  0  0  # atno 8282 bound_to 5176
    1.6065   -0.8788    2.9239 LP  0  0  0  0  0  0  0  0  0  0  0  0  # atno 8283 bound_to 5703
    2.1595    0.6139    2.5596 LP  0  0  0  0  0  0  0  0  0  0  0  0  # atno 8284 bound_to 5703
    5.3230    3.5498    3.4420 LP  0  0  0  0  0  0  0  0  0  0  0  0  # atno 8309 bound_to 8031
    4.8277    5.0950    3.2589 LP  0  0  0  0  0  0  0  0  0  0  0  0  # atno 8310 bound_to 8031
   -3.5021   -0.0398   -0.3577 LP  0  0  0  0  0  0  0  0  0  0  0  0  # atno 8323 bound_to 2745
   -4.2295    0.1931    1.0856 LP  0  0  0  0  0  0  0  0  0  0  0  0  # atno 8324 bound_to 2745
   17.7511    7.8369    3.1457 LP  0  0  0  0  0  0  0  0  0  0  0  0  # atno 8335 bound_to 1361
   18.9023    6.6816    3.0632 LP  0  0  0  0  0  0  0  0  0  0  0  0  # atno 8336 bound_to 1361
    5.1534  -10.2255    6.8986 LP  0  0  0  0  0  0  0  0  0  0  0  0  # atno 8342 bound_to 2551
    5.0060   -9.3964    8.2977 LP  0  0  0  0  0  0  0  0  0  0  0  0  # atno 8343 bound_to 2551

