
103|LMW3_p|sdf|103|dock9
  -GOLD-   6 822 5193D 1   1.00000     0.00000

 81 84  0  0  0  0  0  0  0  0  2 V2000
   10.6173    6.6415    5.7926 O   0  0  0  0  0  0  0  0  0  0  0  0
   10.2958    5.5048    5.4685 C   0  0  0  0  0  0  0  0  0  0  0  0
   11.2175    4.3433    5.5380 C   0  0  0  0  0  0  0  0  0  0  0  0
    8.9099    5.2482    5.0400 C   0  0  0  0  0  0  0  0  0  0  0  0
   10.8531    3.1651    4.9729 C   0  0  0  0  0  0  0  0  0  0  0  0
   12.5235    4.4891    6.3066 C   0  0  1  0  0  0  0  0  0  0  0  0
    8.5050    4.0999    4.4645 C   0  0  0  0  0  0  0  0  0  0  0  0
    9.5371    2.9879    4.1554 C   0  0  2  0  0  0  0  0  0  0  0  0
   11.7783    1.9421    5.0688 C   0  0  0  0  0  0  0  0  0  0  0  0
   13.6336    3.5894    5.6431 C   0  0  2  0  0  0  0  0  0  0  0  0
   13.2631    5.8422    6.3478 C   0  0  0  0  0  0  0  0  0  0  0  0
   12.1548    4.1125    7.7745 C   0  0  0  0  0  0  0  0  0  0  0  0
    7.0051    3.8782    4.1061 C   0  0  0  0  0  0  0  0  0  0  0  0
    8.9306    1.5923    4.4521 C   0  0  0  0  0  0  0  0  0  0  0  0
    9.9522    3.0820    2.6660 C   0  0  0  0  0  0  0  0  0  0  0  0
   13.1622    2.1338    5.7248 C   0  0  0  0  0  0  0  0  0  0  0  0
   14.8962    3.9569    6.4889 C   0  0  2  0  0  0  0  0  0  0  0  0
   13.8903    3.9377    4.1406 C   0  0  0  0  0  0  0  0  0  0  0  0
   14.7264    5.4904    6.6925 C   0  0  2  0  0  0  0  0  0  0  0  0
    6.5568    2.4172    4.4174 C   0  0  1  0  0  0  0  0  0  0  0  0
    6.0535    4.8358    4.8826 C   0  0  0  0  0  0  0  0  0  0  0  0
    6.7651    4.1882    2.6097 C   0  0  0  0  0  0  0  0  0  0  0  0
    7.5306    1.3737    3.8848 C   0  0  0  0  0  0  0  0  0  0  0  0
   16.2848    3.5619    5.9090 C   0  0  2  0  0  0  0  0  0  0  0  0
   14.9696    5.8383    8.0509 O   0  0  0  0  0  0  0  0  0  0  0  0
    6.4334    2.1895    5.8257 O   0  0  0  0  0  0  0  0  0  0  0  0
   16.4841    2.0685    6.0448 C   0  0  0  0  0  0  0  0  0  0  0  0
   17.4601    4.2648    6.6215 C   0  0  0  0  0  0  0  0  0  0  0  0
   15.7716    1.2904    6.6554 O   0  0  0  0  0  0  0  0  0  0  0  0
   17.5936    1.6346    5.4179 O   0  5  0  0  0  0  0  0  0  0  0  0
   18.7857    4.1504    5.8521 C   0  0  0  0  0  0  0  0  0  0  0  0
   19.7812    5.2100    6.2776 C   0  0  0  0  0  0  0  0  0  0  0  0
   20.2957    5.2056    7.5203 C   0  0  0  0  0  0  0  0  0  0  0  0
   20.1315    6.2719    5.2422 C   0  0  0  0  0  0  0  0  0  0  0  0
   20.3251    5.6788    3.8431 C   0  0  0  0  0  0  0  0  0  0  0  0
   19.0895    7.3930    5.2117 C   0  0  0  0  0  0  0  0  0  0  0  0
    8.2091    5.9909    5.1894 H   0  0  0  0  0  0  0  0  0  0  0  0
   11.9440    1.5889    4.0725 H   0  0  0  0  0  0  0  0  0  0  0  0
   11.2637    1.2664    5.7197 H   0  0  0  0  0  0  0  0  0  0  0  0
   12.8425    6.4775    7.0991 H   0  0  0  0  0  0  0  0  0  0  0  0
   13.1854    6.3699    5.4202 H   0  0  0  0  0  0  0  0  0  0  0  0
   11.6384    3.1754    7.7833 H   0  0  0  0  0  0  0  0  0  0  0  0
   11.5245    4.8709    8.1898 H   0  0  0  0  0  0  0  0  0  0  0  0
   13.0485    4.0328    8.3575 H   0  0  0  0  0  0  0  0  0  0  0  0
    8.8835    1.4678    5.5138 H   0  0  0  0  0  0  0  0  0  0  0  0
    9.5666    0.8774    3.9731 H   0  0  0  0  0  0  0  0  0  0  0  0
    9.4701    2.3042    2.1115 H   0  0  0  0  0  0  0  0  0  0  0  0
   11.0136    2.9733    2.5840 H   0  0  0  0  0  0  0  0  0  0  0  0
    9.6598    4.0336    2.2738 H   0  0  0  0  0  0  0  0  0  0  0  0
   13.8728    1.5109    5.2229 H   0  0  0  0  0  0  0  0  0  0  0  0
   13.0802    1.8682    6.7581 H   0  0  0  0  0  0  0  0  0  0  0  0
   14.9242    3.3841    7.3922 H   0  0  0  0  0  0  0  0  0  0  0  0
   12.9618    3.9291    3.6089 H   0  0  0  0  0  0  0  0  0  0  0  0
   14.5520    3.2129    3.7145 H   0  0  0  0  0  0  0  0  0  0  0  0
   14.3327    4.9094    4.0703 H   0  0  0  0  0  0  0  0  0  0  0  0
   15.4172    6.0212    6.0713 H   0  0  0  0  0  0  0  0  0  0  0  0
    5.6107    2.3128    3.9285 H   0  0  0  0  0  0  0  0  0  0  0  0
    6.0147    5.7817    4.3841 H   0  0  0  0  0  0  0  0  0  0  0  0
    6.4200    4.9724    5.8787 H   0  0  0  0  0  0  0  0  0  0  0  0
    5.0721    4.4111    4.9188 H   0  0  0  0  0  0  0  0  0  0  0  0
    7.1211    5.1726    2.3878 H   0  0  0  0  0  0  0  0  0  0  0  0
    5.7179    4.1313    2.3972 H   0  0  0  0  0  0  0  0  0  0  0  0
    7.2902    3.4753    2.0091 H   0  0  0  0  0  0  0  0  0  0  0  0
    7.1876    0.3997    4.1652 H   0  0  0  0  0  0  0  0  0  0  0  0
    7.5767    1.4628    2.8196 H   0  0  0  0  0  0  0  0  0  0  0  0
   16.2842    3.8702    4.8843 H   0  0  0  0  0  0  0  0  0  0  0  0
   14.8535    6.7945    8.1656 H   0  0  0  0  0  0  0  0  0  0  0  0
    5.7513    1.5187    5.9861 H   0  0  0  0  0  0  0  0  0  0  0  0
   17.5873    3.8217    7.5871 H   0  0  0  0  0  0  0  0  0  0  0  0
   17.2177    5.3049    6.6873 H   0  0  0  0  0  0  0  0  0  0  0  0
   18.5889    4.2611    4.8063 H   0  0  0  0  0  0  0  0  0  0  0  0
   19.2108    3.1921    6.0663 H   0  0  0  0  0  0  0  0  0  0  0  0
   20.0281    4.4647    8.1869 H   0  0  0  0  0  0  0  0  0  0  0  0
   20.9583    5.9431    7.8070 H   0  0  0  0  0  0  0  0  0  0  0  0
   21.0679    6.6918    5.5452 H   0  0  0  0  0  0  0  0  0  0  0  0
   21.0742    6.2357    3.3201 H   0  0  0  0  0  0  0  0  0  0  0  0
   19.4023    5.7284    3.3039 H   0  0  0  0  0  0  0  0  0  0  0  0
   20.6341    4.6579    3.9282 H   0  0  0  0  0  0  0  0  0  0  0  0
   19.1211    7.8836    4.2613 H   0  0  0  0  0  0  0  0  0  0  0  0
   19.3038    8.1003    5.9855 H   0  0  0  0  0  0  0  0  0  0  0  0
   18.1152    6.9787    5.3670 H   0  0  0  0  0  0  0  0  0  0  0  0
  1  2  2  0  0  0  0
  2  3  1  0  0  0  0
  2  4  1  0  0  0  0
  3  5  2  0  0  0  0
  3  6  1  0  0  0  0
  4  7  2  0  0  0  0
  4 37  1  0  0  0  0
  5  8  1  0  0  0  0
  5  9  1  0  0  0  0
  6 10  1  0  0  0  0
  6 11  1  0  0  0  0
  6 12  1  0  0  0  0
  7 13  1  0  0  0  0
  7  8  1  0  0  0  0
  8 14  1  0  0  0  0
  8 15  1  0  0  0  0
  9 16  1  0  0  0  0
  9 38  1  0  0  0  0
  9 39  1  0  0  0  0
 10 17  1  0  0  0  0
 10 18  1  0  0  0  0
 10 16  1  0  0  0  0
 11 19  1  0  0  0  0
 11 40  1  0  0  0  0
 11 41  1  0  0  0  0
 12 42  1  0  0  0  0
 12 43  1  0  0  0  0
 12 44  1  0  0  0  0
 13 20  1  0  0  0  0
 13 21  1  0  0  0  0
 13 22  1  0  0  0  0
 14 23  1  0  0  0  0
 14 45  1  0  0  0  0
 14 46  1  0  0  0  0
 15 47  1  0  0  0  0
 15 48  1  0  0  0  0
 15 49  1  0  0  0  0
 16 50  1  0  0  0  0
 16 51  1  0  0  0  0
 17 24  1  0  0  0  0
 17 19  1  0  0  0  0
 17 52  1  0  0  0  0
 18 53  1  0  0  0  0
 18 54  1  0  0  0  0
 18 55  1  0  0  0  0
 19 25  1  0  0  0  0
 19 56  1  0  0  0  0
 20 26  1  0  0  0  0
 20 23  1  0  0  0  0
 20 57  1  0  0  0  0
 21 58  1  0  0  0  0
 21 59  1  0  0  0  0
 21 60  1  0  0  0  0
 22 61  1  0  0  0  0
 22 62  1  0  0  0  0
 22 63  1  0  0  0  0
 23 64  1  0  0  0  0
 23 65  1  0  0  0  0
 24 27  1  0  0  0  0
 24 28  1  0  0  0  0
 24 66  1  0  0  0  0
 25 67  1  0  0  0  0
 26 68  1  0  0  0  0
 27 29  2  0  0  0  0
 27 30  1  0  0  0  0
 28 31  1  0  0  0  0
 28 69  1  0  0  0  0
 28 70  1  0  0  0  0
 31 32  1  0  0  0  0
 31 71  1  0  0  0  0
 31 72  1  0  0  0  0
 32 33  2  0  0  0  0
 32 34  1  0  0  0  0
 33 73  1  0  0  0  0
 33 74  1  0  0  0  0
 34 35  1  0  0  0  0
 34 36  1  0  0  0  0
 34 75  1  0  0  0  0
 35 76  1  0  0  0  0
 35 77  1  0  0  0  0
 35 78  1  0  0  0  0
 36 79  1  0  0  0  0
 36 80  1  0  0  0  0
 36 81  1  0  0  0  0
M  CHG  1  30  -1
M  END
>  <Code-name>
103

>  <Compound>
Piptolinic acid  G

>  <Specie>
Piptoporus betulinus

>  <Reference>
GrÃ¼ndemann (2020)

>  <Organism>
Cytotoxic Activity

>  <Smiles>
CC(C)C(CC[C@H]([C@@H]([C@@H](C1)O)[C@@](C)(CC2)[C@]1(C)C1=C2[C@@](C)(CC[C@H](C2(C)C)O)C2=CC1=O)C(O)=O)=C

>  <MMFF94 Energy>
112.39

>  <Total Molweight>
498.701

>  <Molweight>
498.701

>  <Monoisotopic Mass>
498.334525

>  <cLogP>
5.7653

>  <cLogS>
-5.244

>  <H-Acceptors>
5

>  <H-Donors>
3

>  <Total Surface Area>
370.71

>  <Relative PSA>
0.17636

>  <Polar Surface Area>
94.83

>  <Druglikeness>
-5.6792

>  <Mutagenic>
none

>  <Tumorigenic>
none

>  <Reproductive Effective>
none

>  <Irritant>
none

>  <Nasty Functions>


>  <Shape Index>
0.44444

>  <Molecular Flexibility>
0.34637

>  <Molecular Complexity>
1.0251

>  <Fragments>
1

>  <Non-H Atoms>
36

>  <Non-C/H Atoms>
5

>  <Metal-Atoms>
0

>  <Electronegative Atoms>
5

>  <Stereo Centers>
7

>  <Rotatable Bonds>
6

>  <Rings Closures>
4

>  <Small Rings>
4

>  <Aromatic Rings>
0

>  <Aromatic Atoms>
0

>  <sp3-Atoms>
26

>  <Symmetric atoms>
2

>  <Amides>
0

>  <Amines>
0

>  <Alkyl-Amines>
0

>  <Aromatic Amines>
0

>  <Aromatic Nitrogens>
0

>  <Basic Nitrogens>
0

>  <Acidic Oxygens>
1

>  <Stereo Configuration>
this enantiomer

> <Gold.Version>
5.8.1

> <Gold.Id.Protein>
ID_2|Prot_COX2_5IKQ_Alig|mol2

> <Gold.Goldscore.Fitness>
0.0000

> <Gold.Goldscore.Internal.Vdw>
-22.6154

> <Gold.Goldscore.Internal.Torsion>
-9.0240

> <Gold.Goldscore.External.Vdw>
-605.7600

> <Gold.Goldscore.Internal.HBond>
0.0000

> <Gold.Goldscore.External.HBond>
0.0223

> <Gold.Goldscore.Internal.Correction>
-26.1603

> <Gold.Goldscore.Hbonds>
donor molecule, donor type, donor heavy atom, donor atom, acceptor molecule, acceptor atom, score
      P1  H  1377  1389       L1    30  0.02
      P1  H  5176  5185       L1    30  0.22
      L1  H    25    67       P1  1261  0.08

> <Gold.Goldscore.Internal.Vdw.Weighted>
-22.6154

> <Gold.Goldscore.Internal.Torsion.Weighted>
-9.0240

> <Gold.Goldscore.External.Vdw.Weighted>
-832.9200

> <Gold.Goldscore.Internal.HBond.Weighted>
0.0000

> <Gold.Goldscore.External.HBond.Weighted>
0.0223

> <Gold.Goldscore.Internal.Correction.Weighted>
-26.1603

> <Gold.Protein.RotatedTorsions>
[ 5077 5068 5067 5065 ] final  149.00 input  179.94 | X-H torsion
[ 5157 5152 5151 5148 ] final  -92.73 input -179.92 | X-H torsion
[ 5185 5176 5175 5173 ] final -146.24 input -179.99 | X-H torsion
[ 5712 5703 5702 5700 ] final  -36.57 input  180.00 | X-H torsion
[ 8036 8031 8030 8027 ] final  -36.51 input -179.94 | X-H torsion
[ 2749 2745 2743 2740 ] final  118.55 input  -60.05 | X-H torsion
[ 1366 1361 1360 1357 ] final -162.75 input  -60.09 | X-H torsion
[ 2556 2551 2550 2547 ] final  135.90 input   59.97 | X-H torsion

> <Gold.Protein.ActiveResidues>
 PRO86   VAL89   HIS90   LEU93   THR94   ILE112  MET113  TYR115  VAL116  LEU117 
 THR118  SER119  ARG120  SER121  LEU123  ILE124  GLN192  SER194  PHE198  PHE201 
 ALA202  GLN203  PHE205  THR206  PHE209  PHE210  VAL228  ILE341  ILE343  VAL344 
 ILE345  GLU346  ASP347  TYR348  VAL349  GLN350  HIS351  LEU352  SER353  GLY354 
 TYR355  PHE357  LEU359  LYS360  GLU380  PHE381  ASN382  THR383  LEU384  TYR385 
 HIS386  TRP387  LEU390  VAL434  LEU507  ARG513  ALA516  ILE517  PHE518  GLY519 
 GLU520  THR521  MET522  VAL523  GLU524  VAL525  GLY526  ALA527  PRO528  PHE529 
 SER530  LEU531  LYS532  GLY533  LEU534  MET535  COH609 

> <Gold.Protein.RotatedAtoms>
   18.7862    6.8842    3.1104 H   0  0  0  0  0  0  0  0  0  0  0  0  # atno 1366 bound_to 1361
    4.8307   -9.7392    6.6278 H   0  0  0  0  0  0  0  0  0  0  0  0  # atno 2556 bound_to 2551
   -3.4418   -0.0450   -0.2012 H   0  0  0  0  0  0  0  0  0  0  0  0  # atno 2749 bound_to 2745
    1.5718   -1.3601    3.7037 H   0  0  0  0  0  0  0  0  0  0  0  0  # atno 5077 bound_to 5068
   11.4138   -1.8341    9.2959 H   0  0  0  0  0  0  0  0  0  0  0  0  # atno 5157 bound_to 5152
   16.0477    0.3609    5.1154 H   0  0  0  0  0  0  0  0  0  0  0  0  # atno 5185 bound_to 5176
    1.5787   -0.5425    2.8395 H   0  0  0  0  0  0  0  0  0  0  0  0  # atno 5712 bound_to 5703
    5.7170    5.2339    3.5194 H   0  0  0  0  0  0  0  0  0  0  0  0  # atno 8036 bound_to 8031
    0.5259   -2.2947    4.2459 LP  0  0  0  0  0  0  0  0  0  0  0  0  # atno 8267 bound_to 5068
    2.0763   -2.7452    4.0011 LP  0  0  0  0  0  0  0  0  0  0  0  0  # atno 8268 bound_to 5068
   12.8856   -1.5292    9.2189 LP  0  0  0  0  0  0  0  0  0  0  0  0  # atno 8279 bound_to 5152
   12.2968   -3.0520    9.2506 LP  0  0  0  0  0  0  0  0  0  0  0  0  # atno 8280 bound_to 5152
   14.9176   -0.5213    4.6647 LP  0  0  0  0  0  0  0  0  0  0  0  0  # atno 8281 bound_to 5176
   16.4686   -1.0284    4.7265 LP  0  0  0  0  0  0  0  0  0  0  0  0  # atno 8282 bound_to 5176
    2.4869    0.5955    2.4665 LP  0  0  0  0  0  0  0  0  0  0  0  0  # atno 8283 bound_to 5703
    2.9899   -0.9568    2.5303 LP  0  0  0  0  0  0  0  0  0  0  0  0  # atno 8284 bound_to 5703
    6.1183    3.7985    3.7155 LP  0  0  0  0  0  0  0  0  0  0  0  0  # atno 8309 bound_to 8031
    4.6342    4.2418    3.1982 LP  0  0  0  0  0  0  0  0  0  0  0  0  # atno 8310 bound_to 8031
   -4.2503    0.2109    1.0415 LP  0  0  0  0  0  0  0  0  0  0  0  0  # atno 8323 bound_to 2745
   -2.8387   -0.6099    1.0560 LP  0  0  0  0  0  0  0  0  0  0  0  0  # atno 8324 bound_to 2745
   18.0795    6.8357    1.7830 LP  0  0  0  0  0  0  0  0  0  0  0  0  # atno 8335 bound_to 1361
   17.6454    7.8567    2.9812 LP  0  0  0  0  0  0  0  0  0  0  0  0  # atno 8336 bound_to 1361
    5.2388   -9.9848    8.0552 LP  0  0  0  0  0  0  0  0  0  0  0  0  # atno 8342 bound_to 2551
    4.5127   -8.6064    7.5658 LP  0  0  0  0  0  0  0  0  0  0  0  0  # atno 8343 bound_to 2551

