
104|LMW3_p|sdf|104|dock2
  -GOLD-   6 822 9583D 1   1.00000     0.00000

 80 83  0  0  0  0  0  0  0  0  2 V2000
   15.8659   -1.3473    3.5407 O   0  0  0  0  0  0  0  0  0  0  0  0
   15.8974   -0.2576    2.9954 C   0  0  0  0  0  0  0  0  0  0  0  0
   15.9898   -0.1623    1.6562 O   0  5  0  0  0  0  0  0  0  0  0  0
   15.8633    1.0942    3.6740 C   0  0  1  0  0  0  0  0  0  0  0  0
   14.5196    1.2546    4.4418 C   0  0  2  0  0  0  0  0  0  0  0  0
   17.1000    1.2052    4.5908 C   0  0  0  0  0  0  0  0  0  0  0  0
   13.2070    0.9420    3.6544 C   0  0  2  0  0  0  0  0  0  0  0  0
   14.2668    2.7071    4.9483 C   0  0  2  0  0  0  0  0  0  0  0  0
   18.4218    0.9382    3.8529 C   0  0  0  0  0  0  0  0  0  0  0  0
   12.1188    1.6080    4.5646 C   0  0  1  0  0  0  0  0  0  0  0  0
   12.8341   -0.5426    3.4939 C   0  0  0  0  0  0  0  0  0  0  0  0
   13.2820    1.5857    2.2286 C   0  0  0  0  0  0  0  0  0  0  0  0
   14.6244    2.8352    6.3197 O   0  0  0  0  0  0  0  0  0  0  0  0
   12.7546    2.9911    4.8116 C   0  0  0  0  0  0  0  0  0  0  0  0
   18.6621    1.9492    2.7473 C   0  0  0  0  0  0  0  0  0  0  0  0
   10.7515    1.5278    3.8897 C   0  0  0  0  0  0  0  0  0  0  0  0
   11.9252    0.9328    5.9608 C   0  0  0  0  0  0  0  0  0  0  0  0
   11.3871   -0.6907    3.0755 C   0  0  0  0  0  0  0  0  0  0  0  0
   18.5140    1.5805    1.4623 C   0  0  0  0  0  0  0  0  0  0  0  0
   19.0512    3.3565    3.1915 C   0  0  0  0  0  0  0  0  0  0  0  0
   10.4305    0.2654    3.1965 C   0  0  0  0  0  0  0  0  0  0  0  0
    9.8485    2.5143    3.9762 C   0  0  0  0  0  0  0  0  0  0  0  0
   20.3013    3.9202    2.5050 C   0  0  0  0  0  0  0  0  0  0  0  0
   17.8779    4.3225    3.0038 C   0  0  0  0  0  0  0  0  0  0  0  0
    9.0144    0.1145    2.5426 C   0  0  2  0  0  0  0  0  0  0  0  0
    8.4905    2.3643    3.5356 C   0  0  0  0  0  0  0  0  0  0  0  0
    8.0265    1.2560    2.9237 C   0  0  0  0  0  0  0  0  0  0  0  0
    8.4122   -1.2540    2.9552 C   0  0  0  0  0  0  0  0  0  0  0  0
    9.2701    0.1579    1.0130 C   0  0  0  0  0  0  0  0  0  0  0  0
    6.5041    1.0657    2.6470 C   0  0  0  0  0  0  0  0  0  0  0  0
    6.9695   -1.4672    2.4999 C   0  0  0  0  0  0  0  0  0  0  0  0
    6.0464   -0.3756    3.0320 C   0  0  1  0  0  0  0  0  0  0  0  0
    6.1826    1.3417    1.1603 C   0  0  0  0  0  0  0  0  0  0  0  0
    5.6120    2.0587    3.4507 C   0  0  0  0  0  0  0  0  0  0  0  0
    5.9602   -0.5086    4.4560 O   0  0  0  0  0  0  0  0  0  0  0  0
   15.9077    1.8931    2.9635 H   0  0  0  0  0  0  0  0  0  0  0  0
   14.6790    0.5322    5.2149 H   0  0  0  0  0  0  0  0  0  0  0  0
   17.0019    0.4927    5.3830 H   0  0  0  0  0  0  0  0  0  0  0  0
   17.1363    2.2094    4.9584 H   0  0  0  0  0  0  0  0  0  0  0  0
   14.8558    3.3923    4.3751 H   0  0  0  0  0  0  0  0  0  0  0  0
   18.3881   -0.0420    3.4250 H   0  0  0  0  0  0  0  0  0  0  0  0
   19.2208    1.0210    4.5597 H   0  0  0  0  0  0  0  0  0  0  0  0
   12.9826   -1.0444    4.4272 H   0  0  0  0  0  0  0  0  0  0  0  0
   13.4559   -0.9726    2.7368 H   0  0  0  0  0  0  0  0  0  0  0  0
   14.0939    1.1515    1.6835 H   0  0  0  0  0  0  0  0  0  0  0  0
   13.4379    2.6401    2.3211 H   0  0  0  0  0  0  0  0  0  0  0  0
   12.3653    1.4050    1.7071 H   0  0  0  0  0  0  0  0  0  0  0  0
   15.5904    2.8136    6.4054 H   0  0  0  0  0  0  0  0  0  0  0  0
   12.5665    3.6459    3.9865 H   0  0  0  0  0  0  0  0  0  0  0  0
   12.3526    3.4731    5.6781 H   0  0  0  0  0  0  0  0  0  0  0  0
   11.4721   -0.0280    5.8326 H   0  0  0  0  0  0  0  0  0  0  0  0
   11.2943    1.5464    6.5693 H   0  0  0  0  0  0  0  0  0  0  0  0
   12.8768    0.8178    6.4364 H   0  0  0  0  0  0  0  0  0  0  0  0
   11.1039   -1.5937    2.6640 H   0  0  0  0  0  0  0  0  0  0  0  0
   18.2487    0.6104    1.2312 H   0  0  0  0  0  0  0  0  0  0  0  0
   18.6657    2.2678    0.7076 H   0  0  0  0  0  0  0  0  0  0  0  0
   19.2992    3.2646    4.2283 H   0  0  0  0  0  0  0  0  0  0  0  0
   10.1416    3.4194    4.3762 H   0  0  0  0  0  0  0  0  0  0  0  0
   20.5125    4.8948    2.8930 H   0  0  0  0  0  0  0  0  0  0  0  0
   20.1304    3.9855    1.4507 H   0  0  0  0  0  0  0  0  0  0  0  0
   21.1332    3.2737    2.6921 H   0  0  0  0  0  0  0  0  0  0  0  0
   18.1536    5.2923    3.3621 H   0  0  0  0  0  0  0  0  0  0  0  0
   17.0315    3.9667    3.5532 H   0  0  0  0  0  0  0  0  0  0  0  0
   17.6289    4.3835    1.9650 H   0  0  0  0  0  0  0  0  0  0  0  0
    7.8352    3.1453    3.6955 H   0  0  0  0  0  0  0  0  0  0  0  0
    8.4410   -1.3250    4.0225 H   0  0  0  0  0  0  0  0  0  0  0  0
    9.0007   -2.0064    2.4731 H   0  0  0  0  0  0  0  0  0  0  0  0
    8.9485    1.1015    0.6242 H   0  0  0  0  0  0  0  0  0  0  0  0
    8.7228   -0.6290    0.5374 H   0  0  0  0  0  0  0  0  0  0  0  0
   10.3153    0.0312    0.8223 H   0  0  0  0  0  0  0  0  0  0  0  0
    6.6286   -2.4158    2.8586 H   0  0  0  0  0  0  0  0  0  0  0  0
    6.9472   -1.4330    1.4306 H   0  0  0  0  0  0  0  0  0  0  0  0
    5.0873   -0.5074    2.5764 H   0  0  0  0  0  0  0  0  0  0  0  0
    5.1245    1.4423    1.0369 H   0  0  0  0  0  0  0  0  0  0  0  0
    6.5357    0.5278    0.5621 H   0  0  0  0  0  0  0  0  0  0  0  0
    6.6652    2.2459    0.8530 H   0  0  0  0  0  0  0  0  0  0  0  0
    5.7187    3.0429    3.0447 H   0  0  0  0  0  0  0  0  0  0  0  0
    5.9161    2.0612    4.4766 H   0  0  0  0  0  0  0  0  0  0  0  0
    4.5886    1.7540    3.3829 H   0  0  0  0  0  0  0  0  0  0  0  0
    6.7652   -0.1521    4.8633 H   0  0  0  0  0  0  0  0  0  0  0  0
  1  2  2  0  0  0  0
  2  3  1  0  0  0  0
  2  4  1  0  0  0  0
  4  5  1  0  0  0  0
  4  6  1  0  0  0  0
  4 36  1  0  0  0  0
  5  7  1  0  0  0  0
  5  8  1  0  0  0  0
  5 37  1  0  0  0  0
  6  9  1  0  0  0  0
  6 38  1  0  0  0  0
  6 39  1  0  0  0  0
  7 10  1  0  0  0  0
  7 11  1  0  0  0  0
  7 12  1  0  0  0  0
  8 13  1  0  0  0  0
  8 14  1  0  0  0  0
  8 40  1  0  0  0  0
  9 15  1  0  0  0  0
  9 41  1  0  0  0  0
  9 42  1  0  0  0  0
 10 16  1  0  0  0  0
 10 17  1  0  0  0  0
 10 14  1  0  0  0  0
 11 18  1  0  0  0  0
 11 43  1  0  0  0  0
 11 44  1  0  0  0  0
 12 45  1  0  0  0  0
 12 46  1  0  0  0  0
 12 47  1  0  0  0  0
 13 48  1  0  0  0  0
 14 49  1  0  0  0  0
 14 50  1  0  0  0  0
 15 19  2  0  0  0  0
 15 20  1  0  0  0  0
 16 21  1  0  0  0  0
 16 22  2  0  0  0  0
 17 51  1  0  0  0  0
 17 52  1  0  0  0  0
 17 53  1  0  0  0  0
 18 21  2  0  0  0  0
 18 54  1  0  0  0  0
 19 55  1  0  0  0  0
 19 56  1  0  0  0  0
 20 23  1  0  0  0  0
 20 24  1  0  0  0  0
 20 57  1  0  0  0  0
 21 25  1  0  0  0  0
 22 26  1  0  0  0  0
 22 58  1  0  0  0  0
 23 59  1  0  0  0  0
 23 60  1  0  0  0  0
 23 61  1  0  0  0  0
 24 62  1  0  0  0  0
 24 63  1  0  0  0  0
 24 64  1  0  0  0  0
 25 27  1  0  0  0  0
 25 28  1  0  0  0  0
 25 29  1  0  0  0  0
 26 27  2  0  0  0  0
 26 65  1  0  0  0  0
 27 30  1  0  0  0  0
 28 31  1  0  0  0  0
 28 66  1  0  0  0  0
 28 67  1  0  0  0  0
 29 68  1  0  0  0  0
 29 69  1  0  0  0  0
 29 70  1  0  0  0  0
 30 32  1  0  0  0  0
 30 33  1  0  0  0  0
 30 34  1  0  0  0  0
 31 32  1  0  0  0  0
 31 71  1  0  0  0  0
 31 72  1  0  0  0  0
 32 35  1  0  0  0  0
 32 73  1  0  0  0  0
 33 74  1  0  0  0  0
 33 75  1  0  0  0  0
 33 76  1  0  0  0  0
 34 77  1  0  0  0  0
 34 78  1  0  0  0  0
 34 79  1  0  0  0  0
 35 80  1  0  0  0  0
M  CHG  1   3  -1
M  END
>  <Code-name>
104

>  <Compound>
Piptolinic acid  H

>  <Specie>
Piptoporus betulinus

>  <Reference>
GrÃ¼ndemann (2020)

>  <Organism>
Cytotoxic Activity

>  <Smiles>
CC(C)C(CC[C@H]([C@@H]([C@@H](C1)O)[C@]2(C)[C@]1(C)C1=CC=C(C(C)(C)[C@@H](CC3)O)[C@@]3(C)C1=CC2)C(O)=O)=C

>  <MMFF94 Energy>
104.14

>  <Total Molweight>
482.702

>  <Molweight>
482.702

>  <Monoisotopic Mass>
482.339610

>  <cLogP>
6.1983

>  <cLogS>
-5.364

>  <H-Acceptors>
4

>  <H-Donors>
3

>  <Total Surface Area>
365.7

>  <Relative PSA>
0.14312

>  <Polar Surface Area>
77.76

>  <Druglikeness>
-6.3947

>  <Mutagenic>
none

>  <Tumorigenic>
none

>  <Reproductive Effective>
low

>  <Irritant>
none

>  <Nasty Functions>


>  <Shape Index>
0.45714

>  <Molecular Flexibility>
0.35876

>  <Molecular Complexity>
1.0328

>  <Fragments>
1

>  <Non-H Atoms>
35

>  <Non-C/H Atoms>
4

>  <Metal-Atoms>
0

>  <Electronegative Atoms>
4

>  <Stereo Centers>
7

>  <Rotatable Bonds>
6

>  <Rings Closures>
4

>  <Small Rings>
4

>  <Aromatic Rings>
0

>  <Aromatic Atoms>
0

>  <sp3-Atoms>
25

>  <Symmetric atoms>
2

>  <Amides>
0

>  <Amines>
0

>  <Alkyl-Amines>
0

>  <Aromatic Amines>
0

>  <Aromatic Nitrogens>
0

>  <Basic Nitrogens>
0

>  <Acidic Oxygens>
1

>  <Stereo Configuration>
this enantiomer

> <Gold.Version>
5.8.1

> <Gold.Id.Protein>
ID_2|Prot_COX2_5IKQ_Alig|mol2

> <Gold.Goldscore.Fitness>
-61.3509

> <Gold.Goldscore.Internal.Vdw>
-20.3323

> <Gold.Goldscore.Internal.Torsion>
-7.1610

> <Gold.Goldscore.External.Vdw>
-43.7460

> <Gold.Goldscore.Internal.HBond>
0.0000

> <Gold.Goldscore.External.HBond>
0.6859

> <Gold.Goldscore.Internal.Correction>
-25.6072

> <Gold.Goldscore.Hbonds>
donor molecule, donor type, donor heavy atom, donor atom, acceptor molecule, acceptor atom, score
      P1  H  1377  1390       L1     3  0.06
      P1  H  5176  5185       L1     1  0.02

> <Gold.Goldscore.Internal.Vdw.Weighted>
-20.3323

> <Gold.Goldscore.Internal.Torsion.Weighted>
-7.1610

> <Gold.Goldscore.External.Vdw.Weighted>
-60.1507

> <Gold.Goldscore.Internal.HBond.Weighted>
0.0000

> <Gold.Goldscore.External.HBond.Weighted>
0.6859

> <Gold.Goldscore.Internal.Correction.Weighted>
-25.6072

> <Gold.Protein.RotatedTorsions>
[ 5077 5068 5067 5065 ] final -159.49 input  179.94 | X-H torsion
[ 5157 5152 5151 5148 ] final -161.35 input -179.92 | X-H torsion
[ 5185 5176 5175 5173 ] final   -2.98 input -179.99 | X-H torsion
[ 5712 5703 5702 5700 ] final  177.47 input  180.00 | X-H torsion
[ 8036 8031 8030 8027 ] final  -52.80 input -179.94 | X-H torsion
[ 2749 2745 2743 2740 ] final  -19.37 input  -60.05 | X-H torsion
[ 1366 1361 1360 1357 ] final   14.67 input  -60.09 | X-H torsion
[ 2556 2551 2550 2547 ] final -119.83 input   59.97 | X-H torsion

> <Gold.Protein.ActiveResidues>
 PRO86   VAL89   HIS90   LEU93   THR94   ILE112  MET113  TYR115  VAL116  LEU117 
 THR118  SER119  ARG120  SER121  LEU123  ILE124  GLN192  SER194  PHE198  PHE201 
 ALA202  GLN203  PHE205  THR206  PHE209  PHE210  VAL228  ILE341  ILE343  VAL344 
 ILE345  GLU346  ASP347  TYR348  VAL349  GLN350  HIS351  LEU352  SER353  GLY354 
 TYR355  PHE357  LEU359  LYS360  GLU380  PHE381  ASN382  THR383  LEU384  TYR385 
 HIS386  TRP387  LEU390  VAL434  LEU507  ARG513  ALA516  ILE517  PHE518  GLY519 
 GLU520  THR521  MET522  VAL523  GLU524  VAL525  GLY526  ALA527  PRO528  PHE529 
 SER530  LEU531  LYS532  GLY533  LEU534  MET535  COH609 

> <Gold.Protein.RotatedAtoms>
   17.6581    7.5224    2.2065 H   0  0  0  0  0  0  0  0  0  0  0  0  # atno 1366 bound_to 1361
    4.4941   -8.7612    7.3259 H   0  0  0  0  0  0  0  0  0  0  0  0  # atno 2556 bound_to 2551
   -3.9878    0.0933    1.1613 H   0  0  0  0  0  0  0  0  0  0  0  0  # atno 2749 bound_to 2745
    2.0970   -1.8010    3.7202 H   0  0  0  0  0  0  0  0  0  0  0  0  # atno 5077 bound_to 5068
   12.1460   -1.3288    9.2398 H   0  0  0  0  0  0  0  0  0  0  0  0  # atno 5157 bound_to 5152
   16.0899   -1.0774    4.7075 H   0  0  0  0  0  0  0  0  0  0  0  0  # atno 5185 bound_to 5176
    2.7540    0.2837    2.3840 H   0  0  0  0  0  0  0  0  0  0  0  0  # atno 5712 bound_to 5703
    5.9099    5.1433    3.5869 H   0  0  0  0  0  0  0  0  0  0  0  0  # atno 8036 bound_to 8031
    0.6357   -1.5358    3.9558 LP  0  0  0  0  0  0  0  0  0  0  0  0  # atno 8267 bound_to 5068
    1.3375   -2.9761    4.2714 LP  0  0  0  0  0  0  0  0  0  0  0  0  # atno 8268 bound_to 5068
   12.9670   -2.5895    9.1993 LP  0  0  0  0  0  0  0  0  0  0  0  0  # atno 8279 bound_to 5152
   11.3399   -2.5960    9.3374 LP  0  0  0  0  0  0  0  0  0  0  0  0  # atno 8280 bound_to 5152
   16.4288    0.3299    5.1116 LP  0  0  0  0  0  0  0  0  0  0  0  0  # atno 8281 bound_to 5176
   14.9068   -0.1526    4.7693 LP  0  0  0  0  0  0  0  0  0  0  0  0  # atno 8282 bound_to 5176
    2.6573   -1.1906    2.6592 LP  0  0  0  0  0  0  0  0  0  0  0  0  # atno 8283 bound_to 5703
    1.4089   -0.1623    2.8843 LP  0  0  0  0  0  0  0  0  0  0  0  0  # atno 8284 bound_to 5703
    5.9135    3.6412    3.6458 LP  0  0  0  0  0  0  0  0  0  0  0  0  # atno 8309 bound_to 8031
    4.6076    4.5077    3.1870 LP  0  0  0  0  0  0  0  0  0  0  0  0  # atno 8310 bound_to 8031
   -2.7288   -0.6377    0.7819 LP  0  0  0  0  0  0  0  0  0  0  0  0  # atno 8323 bound_to 2745
   -3.7061    0.0731   -0.3164 LP  0  0  0  0  0  0  0  0  0  0  0  0  # atno 8324 bound_to 2745
   18.3465    7.4601    3.5430 LP  0  0  0  0  0  0  0  0  0  0  0  0  # atno 8335 bound_to 1361
   18.7280    6.4688    2.3026 LP  0  0  0  0  0  0  0  0  0  0  0  0  # atno 8336 bound_to 1361
    4.9844   -9.9771    6.5875 LP  0  0  0  0  0  0  0  0  0  0  0  0  # atno 8342 bound_to 2551
    5.1698   -9.7841    8.1984 LP  0  0  0  0  0  0  0  0  0  0  0  0  # atno 8343 bound_to 2551

