
109|LMW3_p|sdf|109|dock2
  -GOLD-   6 82216193D 1   1.00000     0.00000

 90 95  0  0  0  0  0  0  0  0  2 V2000
    9.6329   -1.6583    4.9858 O   0  0  0  0  0  0  0  0  0  0  0  0
    9.0663   -0.8112    4.2974 C   0  0  0  0  0  0  0  0  0  0  0  0
    9.7504    0.4765    3.9449 C   0  0  0  0  0  0  0  0  0  0  0  0
    7.6464   -1.0469    3.8379 C   0  0  0  0  0  0  0  0  0  0  0  0
    9.0746    1.4526    3.2794 C   0  0  0  0  0  0  0  0  0  0  0  0
   11.2175    0.6522    4.3253 C   0  0  1  0  0  0  0  0  0  0  0  0
    7.3100   -0.2142    2.5972 C   0  0  2  0  0  0  0  0  0  0  0  0
    7.5813    1.3063    2.8735 C   0  0  2  0  0  0  0  0  0  0  0  0
    9.7476    2.7961    2.9476 C   0  0  0  0  0  0  0  0  0  0  0  0
   11.4842    2.1660    4.6887 C   0  0  2  0  0  0  0  0  0  0  0  0
   11.8161   -0.0285    5.5728 C   0  0  0  0  0  0  0  0  0  0  0  0
   12.0063    0.0994    3.0971 C   0  0  0  0  0  0  0  0  0  0  0  0
    5.9319   -0.5873    1.9295 C   0  0  0  0  0  0  0  0  0  0  0  0
    7.2487    2.1038    1.5843 C   0  0  0  0  0  0  0  0  0  0  0  0
    6.7779    1.9049    4.0526 C   0  0  0  0  0  0  0  0  0  0  0  0
   11.2106    2.9871    3.4110 C   0  0  2  0  0  0  0  0  0  0  0  0
   12.9644    2.1413    5.1520 C   0  0  2  0  0  0  0  0  0  0  0  0
   10.5845    2.6629    5.8715 C   0  0  0  0  0  0  0  0  0  0  0  0
   13.0838    0.7849    5.9009 C   0  0  0  0  0  0  0  0  0  0  0  0
    5.6876    0.3217    0.6861 C   0  0  1  0  0  0  0  0  0  0  0  0
    5.9794   -2.0644    1.4443 C   0  0  0  0  0  0  0  0  0  0  0  0
    4.7229   -0.4979    2.8838 C   0  0  0  0  0  0  0  0  0  0  0  0
    5.8620    1.8071    1.0099 C   0  0  0  0  0  0  0  0  0  0  0  0
   11.4925    4.3752    3.5517 O   0  0  0  0  0  0  0  0  0  0  0  0
   13.5372    3.3641    5.9191 C   0  0  1  0  0  0  0  0  0  0  0  0
   10.7380    4.0687    6.0427 O   0  0  0  0  0  0  0  0  0  0  0  0
    6.6528   -0.0300   -0.3350 O   0  0  0  0  0  0  0  0  0  0  0  0
   12.8528    3.6825    7.2672 C   0  0  0  0  0  0  0  0  0  0  0  0
   15.0426    3.1567    6.1606 C   0  0  0  0  0  0  0  0  0  0  0  0
   11.5437    4.4830    7.1453 C   0  0  1  0  0  0  0  0  0  0  0  0
    6.2570   -0.9350   -1.2719 C   0  0  0  0  0  0  0  0  0  0  0  0
   11.8984    5.8524    6.9064 O   0  0  0  0  0  0  0  0  0  0  0  0
   10.6833    4.5439    8.4190 C   0  0  2  0  0  0  0  0  0  0  0  0
    5.0930   -1.1942   -1.5497 O   0  0  0  0  0  0  0  0  0  0  0  0
    7.4312   -1.6422   -1.8669 C   0  0  0  0  0  0  0  0  0  0  0  0
   10.9433    6.6708    7.4277 C   0  0  0  0  0  0  0  0  0  0  0  0
    9.9639    5.8868    8.2595 C   0  0  1  0  0  0  0  0  0  0  0  0
   11.4868    4.5429    9.7260 C   0  0  0  0  0  0  0  0  0  0  0  0
    8.5907   -1.7754   -0.9398 C   0  0  0  0  0  0  0  0  0  0  0  0
   10.9044    7.8775    7.2474 O   0  0  0  0  0  0  0  0  0  0  0  0
    8.6147    5.7986    7.5602 C   0  0  0  0  0  0  0  0  0  0  0  0
    8.9966   -2.8150   -0.4457 O   0  0  0  0  0  0  0  0  0  0  0  0
    9.2433   -0.6183   -0.7206 O   0  5  0  0  0  0  0  0  0  0  0  0
    6.9766   -0.7788    4.6281 H   0  0  0  0  0  0  0  0  0  0  0  0
    7.5439   -2.0814    3.5847 H   0  0  0  0  0  0  0  0  0  0  0  0
    7.9844   -0.4784    1.8096 H   0  0  0  0  0  0  0  0  0  0  0  0
    9.1629    3.5695    3.4004 H   0  0  0  0  0  0  0  0  0  0  0  0
    9.7905    2.8267    1.8789 H   0  0  0  0  0  0  0  0  0  0  0  0
   12.0669   -1.0470    5.3617 H   0  0  0  0  0  0  0  0  0  0  0  0
   11.1267   -0.0461    6.3910 H   0  0  0  0  0  0  0  0  0  0  0  0
   12.9484    0.6013    3.0230 H   0  0  0  0  0  0  0  0  0  0  0  0
   11.4409    0.2685    2.2046 H   0  0  0  0  0  0  0  0  0  0  0  0
   12.1705   -0.9506    3.2219 H   0  0  0  0  0  0  0  0  0  0  0  0
    7.9795    1.8622    0.8410 H   0  0  0  0  0  0  0  0  0  0  0  0
    7.2587    3.1403    1.8500 H   0  0  0  0  0  0  0  0  0  0  0  0
    7.0130    1.3732    4.9508 H   0  0  0  0  0  0  0  0  0  0  0  0
    5.7306    1.8187    3.8508 H   0  0  0  0  0  0  0  0  0  0  0  0
    7.0345    2.9369    4.1715 H   0  0  0  0  0  0  0  0  0  0  0  0
   11.8846    2.6097    2.6706 H   0  0  0  0  0  0  0  0  0  0  0  0
   13.6049    2.2289    4.2994 H   0  0  0  0  0  0  0  0  0  0  0  0
   10.8744    2.1625    6.7717 H   0  0  0  0  0  0  0  0  0  0  0  0
    9.5606    2.4457    5.6495 H   0  0  0  0  0  0  0  0  0  0  0  0
   13.9539    0.2579    5.5691 H   0  0  0  0  0  0  0  0  0  0  0  0
   13.1740    0.9395    6.9559 H   0  0  0  0  0  0  0  0  0  0  0  0
    4.6806    0.1659    0.3595 H   0  0  0  0  0  0  0  0  0  0  0  0
    5.6549   -2.7097    2.2337 H   0  0  0  0  0  0  0  0  0  0  0  0
    6.9815   -2.3166    1.1667 H   0  0  0  0  0  0  0  0  0  0  0  0
    5.3344   -2.1829    0.5987 H   0  0  0  0  0  0  0  0  0  0  0  0
    4.2948    0.4810    2.8263 H   0  0  0  0  0  0  0  0  0  0  0  0
    5.0451   -0.6881    3.8863 H   0  0  0  0  0  0  0  0  0  0  0  0
    3.9905   -1.2247    2.6006 H   0  0  0  0  0  0  0  0  0  0  0  0
    5.7299    2.3751    0.1127 H   0  0  0  0  0  0  0  0  0  0  0  0
    5.1327    2.0753    1.7455 H   0  0  0  0  0  0  0  0  0  0  0  0
   11.4021    4.8123    2.6905 H   0  0  0  0  0  0  0  0  0  0  0  0
   13.3412    4.2065    5.2891 H   0  0  0  0  0  0  0  0  0  0  0  0
   13.5368    4.2495    7.8636 H   0  0  0  0  0  0  0  0  0  0  0  0
   12.5944    2.7419    7.7069 H   0  0  0  0  0  0  0  0  0  0  0  0
   15.3691    2.2784    5.6438 H   0  0  0  0  0  0  0  0  0  0  0  0
   15.2230    3.0415    7.2090 H   0  0  0  0  0  0  0  0  0  0  0  0
   15.5824    4.0059    5.7970 H   0  0  0  0  0  0  0  0  0  0  0  0
   10.0525    3.6836    8.5014 H   0  0  0  0  0  0  0  0  0  0  0  0
    7.7510   -1.0965   -2.7299 H   0  0  0  0  0  0  0  0  0  0  0  0
    7.1081   -2.6344   -2.1039 H   0  0  0  0  0  0  0  0  0  0  0  0
    9.7196    6.3188    9.2074 H   0  0  0  0  0  0  0  0  0  0  0  0
   10.8145    4.5152   10.5580 H   0  0  0  0  0  0  0  0  0  0  0  0
   12.0833    5.4297    9.7787 H   0  0  0  0  0  0  0  0  0  0  0  0
   12.1231    3.6831    9.7529 H   0  0  0  0  0  0  0  0  0  0  0  0
    8.7401    5.3455    6.5990 H   0  0  0  0  0  0  0  0  0  0  0  0
    8.2098    6.7818    7.4409 H   0  0  0  0  0  0  0  0  0  0  0  0
    7.9457    5.2064    8.1491 H   0  0  0  0  0  0  0  0  0  0  0  0
  1  2  2  0  0  0  0
  2  3  1  0  0  0  0
  2  4  1  0  0  0  0
  3  5  2  0  0  0  0
  3  6  1  0  0  0  0
  4  7  1  0  0  0  0
  4 44  1  0  0  0  0
  4 45  1  0  0  0  0
  5  8  1  0  0  0  0
  5  9  1  0  0  0  0
  6 10  1  0  0  0  0
  6 11  1  0  0  0  0
  6 12  1  0  0  0  0
  7 13  1  0  0  0  0
  7  8  1  0  0  0  0
  7 46  1  0  0  0  0
  8 14  1  0  0  0  0
  8 15  1  0  0  0  0
  9 16  1  0  0  0  0
  9 47  1  0  0  0  0
  9 48  1  0  0  0  0
 10 17  1  0  0  0  0
 10 18  1  0  0  0  0
 10 16  1  0  0  0  0
 11 19  1  0  0  0  0
 11 49  1  0  0  0  0
 11 50  1  0  0  0  0
 12 51  1  0  0  0  0
 12 52  1  0  0  0  0
 12 53  1  0  0  0  0
 13 20  1  0  0  0  0
 13 21  1  0  0  0  0
 13 22  1  0  0  0  0
 14 23  1  0  0  0  0
 14 54  1  0  0  0  0
 14 55  1  0  0  0  0
 15 56  1  0  0  0  0
 15 57  1  0  0  0  0
 15 58  1  0  0  0  0
 16 24  1  0  0  0  0
 16 59  1  0  0  0  0
 17 25  1  0  0  0  0
 17 19  1  0  0  0  0
 17 60  1  0  0  0  0
 18 26  1  0  0  0  0
 18 61  1  0  0  0  0
 18 62  1  0  0  0  0
 19 63  1  0  0  0  0
 19 64  1  0  0  0  0
 20 27  1  0  0  0  0
 20 23  1  0  0  0  0
 20 65  1  0  0  0  0
 21 66  1  0  0  0  0
 21 67  1  0  0  0  0
 21 68  1  0  0  0  0
 22 69  1  0  0  0  0
 22 70  1  0  0  0  0
 22 71  1  0  0  0  0
 23 72  1  0  0  0  0
 23 73  1  0  0  0  0
 24 74  1  0  0  0  0
 25 28  1  0  0  0  0
 25 29  1  0  0  0  0
 25 75  1  0  0  0  0
 27 31  1  0  0  0  0
 28 30  1  0  0  0  0
 28 76  1  0  0  0  0
 28 77  1  0  0  0  0
 29 78  1  0  0  0  0
 29 79  1  0  0  0  0
 29 80  1  0  0  0  0
 30 26  1  0  0  0  0
 30 32  1  0  0  0  0
 30 33  1  0  0  0  0
 31 34  2  0  0  0  0
 31 35  1  0  0  0  0
 32 36  1  0  0  0  0
 33 37  1  0  0  0  0
 33 38  1  0  0  0  0
 33 81  1  0  0  0  0
 35 39  1  0  0  0  0
 35 82  1  0  0  0  0
 35 83  1  0  0  0  0
 36 40  2  0  0  0  0
 36 37  1  0  0  0  0
 37 41  1  0  0  0  0
 37 84  1  0  0  0  0
 38 85  1  0  0  0  0
 38 86  1  0  0  0  0
 38 87  1  0  0  0  0
 39 42  2  0  0  0  0
 39 43  1  0  0  0  0
 41 88  1  0  0  0  0
 41 89  1  0  0  0  0
 41 90  1  0  0  0  0
M  CHG  1  43  -1
M  END
>  <Code-name>
109

>  <Compound>
officimalonic acids C

>  <Specie>
Fomitopsis officinalis

>  <Reference>
GrÃ¼ndemann (2020)

>  <Organism>
N/A

>  <Smiles>
C[C@@H]([C@H](C)C(O1)=O)[C@@]1(C[C@@H](C)[C@H]1CC2)OC[C@]1([C@@H](C1)O)[C@]2(C)C(C(C2)=O)=C1[C@@](C)(CC1)[C@@H]2C(C)(C)[C@@H]1OC(CC(O)=O)=O

>  <MMFF94 Energy>
81.285

>  <Total Molweight>
600.746

>  <Molweight>
600.746

>  <Monoisotopic Mass>
600.329835

>  <cLogP>
3.8072

>  <cLogS>
-5.499

>  <H-Acceptors>
9

>  <H-Donors>
2

>  <Total Surface Area>
418.33

>  <Relative PSA>
0.25903

>  <Polar Surface Area>
136.43

>  <Druglikeness>
-9.7061

>  <Mutagenic>
none

>  <Tumorigenic>
none

>  <Reproductive Effective>
none

>  <Irritant>
none

>  <Nasty Functions>


>  <Shape Index>
0.44186

>  <Molecular Flexibility>
0.19934

>  <Molecular Complexity>
1.0713

>  <Fragments>
1

>  <Non-H Atoms>
43

>  <Non-C/H Atoms>
9

>  <Metal-Atoms>
0

>  <Electronegative Atoms>
9

>  <Stereo Centers>
11

>  <Rotatable Bonds>
4

>  <Rings Closures>
6

>  <Small Rings>
6

>  <Aromatic Rings>
0

>  <Aromatic Atoms>
0

>  <sp3-Atoms>
33

>  <Symmetric atoms>
1

>  <Amides>
0

>  <Amines>
0

>  <Alkyl-Amines>
0

>  <Aromatic Amines>
0

>  <Aromatic Nitrogens>
0

>  <Basic Nitrogens>
0

>  <Acidic Oxygens>
1

>  <Stereo Configuration>
this enantiomer

> <Gold.Version>
5.8.1

> <Gold.Id.Protein>
ID_2|Prot_COX2_5IKQ_Alig|mol2

> <Gold.Goldscore.Fitness>
-201.5375

> <Gold.Goldscore.Internal.Vdw>
-24.6463

> <Gold.Goldscore.Internal.Torsion>
-12.1489

> <Gold.Goldscore.External.Vdw>
-136.6169

> <Gold.Goldscore.Internal.HBond>
0.0000

> <Gold.Goldscore.External.HBond>
0.0261

> <Gold.Goldscore.Internal.Correction>
-23.0798

> <Gold.Goldscore.Hbonds>
donor molecule, donor type, donor heavy atom, donor atom, acceptor molecule, acceptor atom, score
      L1  H    24    74       P1  7985  0.01

> <Gold.Goldscore.Internal.Vdw.Weighted>
-24.6463

> <Gold.Goldscore.Internal.Torsion.Weighted>
-12.1489

> <Gold.Goldscore.External.Vdw.Weighted>
-187.8482

> <Gold.Goldscore.Internal.HBond.Weighted>
0.0000

> <Gold.Goldscore.External.HBond.Weighted>
0.0261

> <Gold.Goldscore.Internal.Correction.Weighted>
-23.0798

> <Gold.Protein.RotatedTorsions>
[ 5077 5068 5067 5065 ] final -175.90 input  179.94 | X-H torsion
[ 5157 5152 5151 5148 ] final   84.72 input -179.92 | X-H torsion
[ 5185 5176 5175 5173 ] final  -10.92 input -179.99 | X-H torsion
[ 5712 5703 5702 5700 ] final -106.69 input  180.00 | X-H torsion
[ 8036 8031 8030 8027 ] final   10.43 input -179.94 | X-H torsion
[ 2749 2745 2743 2740 ] final  -31.51 input  -60.05 | X-H torsion
[ 1366 1361 1360 1357 ] final   49.31 input  -60.09 | X-H torsion
[ 2556 2551 2550 2547 ] final -131.02 input   59.97 | X-H torsion

> <Gold.Protein.ActiveResidues>
 PRO86   VAL89   HIS90   LEU93   THR94   ILE112  MET113  TYR115  VAL116  LEU117 
 THR118  SER119  ARG120  SER121  LEU123  ILE124  GLN192  SER194  PHE198  PHE201 
 ALA202  GLN203  PHE205  THR206  PHE209  PHE210  VAL228  ILE341  ILE343  VAL344 
 ILE345  GLU346  ASP347  TYR348  VAL349  GLN350  HIS351  LEU352  SER353  GLY354 
 TYR355  PHE357  LEU359  LYS360  GLU380  PHE381  ASN382  THR383  LEU384  TYR385 
 HIS386  TRP387  LEU390  VAL434  LEU507  ARG513  ALA516  ILE517  PHE518  GLY519 
 GLU520  THR521  MET522  VAL523  GLU524  VAL525  GLY526  ALA527  PRO528  PHE529 
 SER530  LEU531  LYS532  GLY533  LEU534  MET535  COH609 

> <Gold.Protein.RotatedAtoms>
   17.8638    7.1912    1.9430 H   0  0  0  0  0  0  0  0  0  0  0  0  # atno 1366 bound_to 1361
    4.4831   -8.7928    7.1755 H   0  0  0  0  0  0  0  0  0  0  0  0  # atno 2556 bound_to 2551
   -3.8773    0.0162    1.2601 H   0  0  0  0  0  0  0  0  0  0  0  0  # atno 2749 bound_to 2745
    1.9732   -1.6156    3.6882 H   0  0  0  0  0  0  0  0  0  0  0  0  # atno 5077 bound_to 5068
   12.8694   -2.4372    9.1650 H   0  0  0  0  0  0  0  0  0  0  0  0  # atno 5157 bound_to 5152
   16.1888   -1.0383    4.7320 H   0  0  0  0  0  0  0  0  0  0  0  0  # atno 5185 bound_to 5176
    1.8237    0.3089    2.6524 H   0  0  0  0  0  0  0  0  0  0  0  0  # atno 5712 bound_to 5703
    5.1288    5.1496    3.3163 H   0  0  0  0  0  0  0  0  0  0  0  0  # atno 8036 bound_to 8031
    0.5232   -1.7566    4.0610 LP  0  0  0  0  0  0  0  0  0  0  0  0  # atno 8267 bound_to 5068
    1.5983   -2.9773    4.2045 LP  0  0  0  0  0  0  0  0  0  0  0  0  # atno 8268 bound_to 5068
   11.3931   -2.6775    9.3319 LP  0  0  0  0  0  0  0  0  0  0  0  0  # atno 8279 bound_to 5152
   12.0486   -1.1824    9.2942 LP  0  0  0  0  0  0  0  0  0  0  0  0  # atno 8280 bound_to 5152
   16.3238    0.4074    5.1199 LP  0  0  0  0  0  0  0  0  0  0  0  0  # atno 8281 bound_to 5176
   14.8930   -0.2771    4.7316 LP  0  0  0  0  0  0  0  0  0  0  0  0  # atno 8282 bound_to 5176
    3.2045   -0.2109    2.3664 LP  0  0  0  0  0  0  0  0  0  0  0  0  # atno 8283 bound_to 5703
    1.9783   -1.1722    2.8551 LP  0  0  0  0  0  0  0  0  0  0  0  0  # atno 8284 bound_to 5703
    6.3902    4.4934    3.8045 LP  0  0  0  0  0  0  0  0  0  0  0  0  # atno 8309 bound_to 8031
    5.0680    3.6480    3.3529 LP  0  0  0  0  0  0  0  0  0  0  0  0  # atno 8310 bound_to 8031
   -2.6982   -0.6297    0.5849 LP  0  0  0  0  0  0  0  0  0  0  0  0  # atno 8323 bound_to 2745
   -3.8690    0.1573   -0.2377 LP  0  0  0  0  0  0  0  0  0  0  0  0  # atno 8324 bound_to 2745
   17.9233    7.7642    3.3330 LP  0  0  0  0  0  0  0  0  0  0  0  0  # atno 8335 bound_to 1361
   18.9050    6.5610    2.8277 LP  0  0  0  0  0  0  0  0  0  0  0  0  # atno 8336 bound_to 1361
    5.0609  -10.0990    6.7020 LP  0  0  0  0  0  0  0  0  0  0  0  0  # atno 8342 bound_to 2551
    5.1064   -9.6243    8.2638 LP  0  0  0  0  0  0  0  0  0  0  0  0  # atno 8343 bound_to 2551

