
111|LMW3_p|sdf|111|dock8
  -GOLD-   6 82216433D 1   1.00000     0.00000

 96 99  0  0  0  0  0  0  0  0  2 V2000
    6.7208    1.9055    0.8664 O   0  0  0  0  0  0  0  0  0  0  0  0
    6.0877    1.0613    1.4776 C   0  0  0  0  0  0  0  0  0  0  0  0
    4.9511    1.3960    2.1180 O   0  5  0  0  0  0  0  0  0  0  0  0
    6.4569   -0.3962    1.6234 C   0  0  2  0  0  0  0  0  0  0  0  0
    7.9427   -0.5611    2.0059 C   0  0  2  0  0  0  0  0  0  0  0  0
    6.0963   -1.1148    0.3202 C   0  0  0  0  0  0  0  0  0  0  0  0
    8.3343    0.4254    3.1042 C   0  0  0  0  0  0  0  0  0  0  0  0
    8.8811   -0.3274    0.8199 C   0  0  0  0  0  0  0  0  0  0  0  0
    8.3610    1.6352    2.8846 O   0  0  0  0  0  0  0  0  0  0  0  0
    8.7449   -0.1856    4.4410 C   0  0  0  0  0  0  0  0  0  0  0  0
   10.2554   -0.4779    4.6383 C   0  0  2  0  0  0  0  0  0  0  0  0
   11.1723    0.6548    4.0809 C   0  0  2  0  0  0  0  0  0  0  0  0
   10.5778   -1.8738    4.1015 C   0  0  0  0  0  0  0  0  0  0  0  0
   12.7370    0.5741    4.1897 C   0  0  2  0  0  0  0  0  0  0  0  0
   10.8494    2.0123    4.7798 C   0  0  0  0  0  0  0  0  0  0  0  0
   13.1355    2.0904    3.9597 C   0  0  1  0  0  0  0  0  0  0  0  0
   13.4933   -0.2395    3.1115 C   0  0  2  0  0  0  0  0  0  0  0  0
   13.1194    0.0519    5.6095 C   0  0  0  0  0  0  0  0  0  0  0  0
   12.1578    2.8027    4.9047 C   0  0  0  0  0  0  0  0  0  0  0  0
   14.6291    2.2976    4.1820 C   0  0  0  0  0  0  0  0  0  0  0  0
   12.8563    2.6402    2.5241 C   0  0  0  0  0  0  0  0  0  0  0  0
   13.3036   -1.6474    3.2372 O   0  0  0  0  0  0  0  0  0  0  0  0
   15.0215    0.0480    3.1256 C   0  0  0  0  0  0  0  0  0  0  0  0
   15.5074    1.3565    3.7529 C   0  0  0  0  0  0  0  0  0  0  0  0
   15.0547    3.6085    4.8035 C   0  0  0  0  0  0  0  0  0  0  0  0
   17.0420    1.5439    3.9051 C   0  0  2  0  0  0  0  0  0  0  0  0
   16.5600    3.7900    5.0084 C   0  0  0  0  0  0  0  0  0  0  0  0
   17.3572    3.0878    3.8985 C   0  0  1  0  0  0  0  0  0  0  0  0
   17.8232    0.8886    2.7367 C   0  0  0  0  0  0  0  0  0  0  0  0
   17.4054    0.8164    5.2223 C   0  0  0  0  0  0  0  0  0  0  0  0
   18.8731    3.5061    3.8192 C   0  0  0  0  0  0  0  0  0  0  0  0
   19.3173    1.2204    2.7301 C   0  0  0  0  0  0  0  0  0  0  0  0
   19.5698    2.7286    2.6597 C   0  0  1  0  0  0  0  0  0  0  0  0
   19.6571    3.2997    5.1312 C   0  0  0  0  0  0  0  0  0  0  0  0
   18.9687    5.0266    3.5040 C   0  0  0  0  0  0  0  0  0  0  0  0
   19.0423    3.2087    1.3991 O   0  0  0  0  0  0  0  0  0  0  0  0
   19.6779    2.7952    0.2684 C   0  0  0  0  0  0  0  0  0  0  0  0
   20.7701    2.2446    0.2291 O   0  0  0  0  0  0  0  0  0  0  0  0
   18.8716    3.1459   -0.9397 C   0  0  0  0  0  0  0  0  0  0  0  0
   18.7135    4.6226   -1.1156 C   0  0  0  0  0  0  0  0  0  0  0  0
   18.3668    5.4114   -0.2483 O   0  0  0  0  0  0  0  0  0  0  0  0
   18.9840    4.9595   -2.4104 O   0  0  0  0  0  0  0  0  0  0  0  0
   18.8822    6.3595   -2.6797 C   0  0  0  0  0  0  0  0  0  0  0  0
    5.9040   -0.8412    2.4242 H   0  0  0  0  0  0  0  0  0  0  0  0
    8.0466   -1.5707    2.3447 H   0  0  0  0  0  0  0  0  0  0  0  0
    5.0321   -1.1491    0.2145 H   0  0  0  0  0  0  0  0  0  0  0  0
    6.4848   -2.1115    0.3432 H   0  0  0  0  0  0  0  0  0  0  0  0
    6.5201   -0.5858   -0.5078 H   0  0  0  0  0  0  0  0  0  0  0  0
    8.7013   -1.0703    0.0710 H   0  0  0  0  0  0  0  0  0  0  0  0
    9.8967   -0.3927    1.1504 H   0  0  0  0  0  0  0  0  0  0  0  0
    8.7015    0.6441    0.4089 H   0  0  0  0  0  0  0  0  0  0  0  0
    8.2187   -1.1109    4.5498 H   0  0  0  0  0  0  0  0  0  0  0  0
    8.5033    0.5547    5.1748 H   0  0  0  0  0  0  0  0  0  0  0  0
   10.4753   -0.4803    5.6855 H   0  0  0  0  0  0  0  0  0  0  0  0
   10.9330    0.5450    3.0438 H   0  0  0  0  0  0  0  0  0  0  0  0
   11.5313   -2.1872    4.4725 H   0  0  0  0  0  0  0  0  0  0  0  0
   10.6023   -1.8477    3.0320 H   0  0  0  0  0  0  0  0  0  0  0  0
    9.8254   -2.5626    4.4243 H   0  0  0  0  0  0  0  0  0  0  0  0
   10.4395    1.8322    5.7516 H   0  0  0  0  0  0  0  0  0  0  0  0
   10.1341    2.5648    4.2072 H   0  0  0  0  0  0  0  0  0  0  0  0
   13.0708    0.0840    2.1832 H   0  0  0  0  0  0  0  0  0  0  0  0
   13.1158   -1.0181    5.6089 H   0  0  0  0  0  0  0  0  0  0  0  0
   12.4089    0.4106    6.3247 H   0  0  0  0  0  0  0  0  0  0  0  0
   14.0956    0.4052    5.8685 H   0  0  0  0  0  0  0  0  0  0  0  0
   12.5195    2.7768    5.9114 H   0  0  0  0  0  0  0  0  0  0  0  0
   12.0323    3.8353    4.6540 H   0  0  0  0  0  0  0  0  0  0  0  0
   13.5040    2.1550    1.8242 H   0  0  0  0  0  0  0  0  0  0  0  0
   13.0363    3.6948    2.5049 H   0  0  0  0  0  0  0  0  0  0  0  0
   11.8375    2.4474    2.2603 H   0  0  0  0  0  0  0  0  0  0  0  0
   13.9764   -2.1122    2.7156 H   0  0  0  0  0  0  0  0  0  0  0  0
   15.3546    0.0412    2.1088 H   0  0  0  0  0  0  0  0  0  0  0  0
   15.4281   -0.7145    3.7568 H   0  0  0  0  0  0  0  0  0  0  0  0
   14.5812    3.6876    5.7597 H   0  0  0  0  0  0  0  0  0  0  0  0
   14.7620    4.3681    4.1091 H   0  0  0  0  0  0  0  0  0  0  0  0
   16.8367    3.3737    5.9544 H   0  0  0  0  0  0  0  0  0  0  0  0
   16.7837    4.8359    4.9782 H   0  0  0  0  0  0  0  0  0  0  0  0
   17.0156    3.4482    2.9507 H   0  0  0  0  0  0  0  0  0  0  0  0
   17.3984    1.2272    1.8149 H   0  0  0  0  0  0  0  0  0  0  0  0
   17.7397   -0.1709    2.8612 H   0  0  0  0  0  0  0  0  0  0  0  0
   18.3106    1.2270    5.6185 H   0  0  0  0  0  0  0  0  0  0  0  0
   17.5423   -0.2268    5.0275 H   0  0  0  0  0  0  0  0  0  0  0  0
   16.6146    0.9461    5.9314 H   0  0  0  0  0  0  0  0  0  0  0  0
   19.7709    0.7541    1.8805 H   0  0  0  0  0  0  0  0  0  0  0  0
   19.7404    0.8569    3.6432 H   0  0  0  0  0  0  0  0  0  0  0  0
   20.6229    2.8962    2.7474 H   0  0  0  0  0  0  0  0  0  0  0  0
   19.0322    3.5489    5.9631 H   0  0  0  0  0  0  0  0  0  0  0  0
   20.5216    3.9302    5.1330 H   0  0  0  0  0  0  0  0  0  0  0  0
   19.9616    2.2768    5.2076 H   0  0  0  0  0  0  0  0  0  0  0  0
   19.9445    5.2521    3.1274 H   0  0  0  0  0  0  0  0  0  0  0  0
   18.7928    5.5879    4.3978 H   0  0  0  0  0  0  0  0  0  0  0  0
   18.2345    5.2855    2.7700 H   0  0  0  0  0  0  0  0  0  0  0  0
   17.9008    2.7062   -0.8435 H   0  0  0  0  0  0  0  0  0  0  0  0
   19.3910    2.7708   -1.7966 H   0  0  0  0  0  0  0  0  0  0  0  0
   19.1295    6.5445   -3.7042 H   0  0  0  0  0  0  0  0  0  0  0  0
   19.5592    6.8946   -2.0471 H   0  0  0  0  0  0  0  0  0  0  0  0
   17.8816    6.6874   -2.4895 H   0  0  0  0  0  0  0  0  0  0  0  0
  1  2  2  0  0  0  0
  2  3  1  0  0  0  0
  2  4  1  0  0  0  0
  4  5  1  0  0  0  0
  4  6  1  0  0  0  0
  4 44  1  0  0  0  0
  5  7  1  0  0  0  0
  5  8  1  0  0  0  0
  5 45  1  0  0  0  0
  6 46  1  0  0  0  0
  6 47  1  0  0  0  0
  6 48  1  0  0  0  0
  7  9  2  0  0  0  0
  7 10  1  0  0  0  0
  8 49  1  0  0  0  0
  8 50  1  0  0  0  0
  8 51  1  0  0  0  0
 10 11  1  0  0  0  0
 10 52  1  0  0  0  0
 10 53  1  0  0  0  0
 11 12  1  0  0  0  0
 11 13  1  0  0  0  0
 11 54  1  0  0  0  0
 12 14  1  0  0  0  0
 12 15  1  0  0  0  0
 12 55  1  0  0  0  0
 13 56  1  0  0  0  0
 13 57  1  0  0  0  0
 13 58  1  0  0  0  0
 14 16  1  0  0  0  0
 14 17  1  0  0  0  0
 14 18  1  0  0  0  0
 15 19  1  0  0  0  0
 15 59  1  0  0  0  0
 15 60  1  0  0  0  0
 16 20  1  0  0  0  0
 16 21  1  0  0  0  0
 16 19  1  0  0  0  0
 17 22  1  0  0  0  0
 17 23  1  0  0  0  0
 17 61  1  0  0  0  0
 18 62  1  0  0  0  0
 18 63  1  0  0  0  0
 18 64  1  0  0  0  0
 19 65  1  0  0  0  0
 19 66  1  0  0  0  0
 20 24  2  0  0  0  0
 20 25  1  0  0  0  0
 21 67  1  0  0  0  0
 21 68  1  0  0  0  0
 21 69  1  0  0  0  0
 22 70  1  0  0  0  0
 23 24  1  0  0  0  0
 23 71  1  0  0  0  0
 23 72  1  0  0  0  0
 24 26  1  0  0  0  0
 25 27  1  0  0  0  0
 25 73  1  0  0  0  0
 25 74  1  0  0  0  0
 26 28  1  0  0  0  0
 26 29  1  0  0  0  0
 26 30  1  0  0  0  0
 27 28  1  0  0  0  0
 27 75  1  0  0  0  0
 27 76  1  0  0  0  0
 28 31  1  0  0  0  0
 28 77  1  0  0  0  0
 29 32  1  0  0  0  0
 29 78  1  0  0  0  0
 29 79  1  0  0  0  0
 30 80  1  0  0  0  0
 30 81  1  0  0  0  0
 30 82  1  0  0  0  0
 31 33  1  0  0  0  0
 31 34  1  0  0  0  0
 31 35  1  0  0  0  0
 32 33  1  0  0  0  0
 32 83  1  0  0  0  0
 32 84  1  0  0  0  0
 33 36  1  0  0  0  0
 33 85  1  0  0  0  0
 34 86  1  0  0  0  0
 34 87  1  0  0  0  0
 34 88  1  0  0  0  0
 35 89  1  0  0  0  0
 35 90  1  0  0  0  0
 35 91  1  0  0  0  0
 36 37  1  0  0  0  0
 37 38  2  0  0  0  0
 37 39  1  0  0  0  0
 39 40  1  0  0  0  0
 39 92  1  0  0  0  0
 39 93  1  0  0  0  0
 40 41  2  0  0  0  0
 40 42  1  0  0  0  0
 42 43  1  0  0  0  0
 43 94  1  0  0  0  0
 43 95  1  0  0  0  0
 43 96  1  0  0  0  0
M  CHG  1   3  -1
M  END
>  <Code-name>
111

>  <Compound>
officimalonic acids E

>  <Specie>
Fomitopsis officinalis

>  <Reference>
GrÃ¼ndemann (2020)

>  <Organism>
N/A

>  <Smiles>
C[C@H](CC([C@H](C)[C@H](C)C(O)=O)=O)[C@@H](CC1)[C@@](C)([C@@H](C2)O)[C@]1(C)C(CC1)=C2[C@@](C)(CC2)[C@@H]1C(C)(C)[C@@H]2OC(CC(OC)=O)=O

>  <MMFF94 Energy>
72.975

>  <Total Molweight>
602.806

>  <Molweight>
602.806

>  <Monoisotopic Mass>
602.381870

>  <cLogP>
5.4132

>  <cLogS>
-5.888

>  <H-Acceptors>
8

>  <H-Donors>
2

>  <Total Surface Area>
449.44

>  <Relative PSA>
0.21885

>  <Polar Surface Area>
127.2

>  <Druglikeness>
-20.575

>  <Mutagenic>
none

>  <Tumorigenic>
none

>  <Reproductive Effective>
none

>  <Irritant>
high

>  <Nasty Functions>


>  <Shape Index>
0.51163

>  <Molecular Flexibility>
0.4119

>  <Molecular Complexity>
1.0381

>  <Fragments>
1

>  <Non-H Atoms>
43

>  <Non-C/H Atoms>
8

>  <Metal-Atoms>
0

>  <Electronegative Atoms>
8

>  <Stereo Centers>
10

>  <Rotatable Bonds>
11

>  <Rings Closures>
4

>  <Small Rings>
4

>  <Aromatic Rings>
0

>  <Aromatic Atoms>
0

>  <sp3-Atoms>
33

>  <Symmetric atoms>
1

>  <Amides>
0

>  <Amines>
0

>  <Alkyl-Amines>
0

>  <Aromatic Amines>
0

>  <Aromatic Nitrogens>
0

>  <Basic Nitrogens>
0

>  <Acidic Oxygens>
1

>  <Stereo Configuration>
this enantiomer

> <Gold.Version>
5.8.1

> <Gold.Id.Protein>
ID_2|Prot_COX2_5IKQ_Alig|mol2

> <Gold.Goldscore.Fitness>
-99.9788

> <Gold.Goldscore.Internal.Vdw>
-27.2353

> <Gold.Goldscore.Internal.Torsion>
-12.1610

> <Gold.Goldscore.External.Vdw>
-73.4710

> <Gold.Goldscore.Internal.HBond>
0.0000

> <Gold.Goldscore.External.HBond>
4.1405

> <Gold.Goldscore.Internal.Correction>
-36.2995

> <Gold.Goldscore.Hbonds>
donor molecule, donor type, donor heavy atom, donor atom, acceptor molecule, acceptor atom, score
      P1  H  5703  5712       L1     3  0.69

> <Gold.Goldscore.Internal.Vdw.Weighted>
-27.2353

> <Gold.Goldscore.Internal.Torsion.Weighted>
-12.1610

> <Gold.Goldscore.External.Vdw.Weighted>
-101.0226

> <Gold.Goldscore.Internal.HBond.Weighted>
0.0000

> <Gold.Goldscore.External.HBond.Weighted>
4.1405

> <Gold.Goldscore.Internal.Correction.Weighted>
-36.2995

> <Gold.Protein.RotatedTorsions>
[ 5077 5068 5067 5065 ] final  158.42 input  179.94 | X-H torsion
[ 5157 5152 5151 5148 ] final  -54.65 input -179.92 | X-H torsion
[ 5185 5176 5175 5173 ] final   10.61 input -179.99 | X-H torsion
[ 5712 5703 5702 5700 ] final  161.39 input  180.00 | X-H torsion
[ 8036 8031 8030 8027 ] final -169.03 input -179.94 | X-H torsion
[ 2749 2745 2743 2740 ] final  129.87 input  -60.05 | X-H torsion
[ 1366 1361 1360 1357 ] final    0.97 input  -60.09 | X-H torsion
[ 2556 2551 2550 2547 ] final   33.45 input   59.97 | X-H torsion

> <Gold.Protein.ActiveResidues>
 PRO86   VAL89   HIS90   LEU93   THR94   ILE112  MET113  TYR115  VAL116  LEU117 
 THR118  SER119  ARG120  SER121  LEU123  ILE124  GLN192  SER194  PHE198  PHE201 
 ALA202  GLN203  PHE205  THR206  PHE209  PHE210  VAL228  ILE341  ILE343  VAL344 
 ILE345  GLU346  ASP347  TYR348  VAL349  GLN350  HIS351  LEU352  SER353  GLY354 
 TYR355  PHE357  LEU359  LYS360  GLU380  PHE381  ASN382  THR383  LEU384  TYR385 
 HIS386  TRP387  LEU390  VAL434  LEU507  ARG513  ALA516  ILE517  PHE518  GLY519 
 GLU520  THR521  MET522  VAL523  GLU524  VAL525  GLY526  ALA527  PRO528  PHE529 
 SER530  LEU531  LYS532  GLY533  LEU534  MET535  COH609 

> <Gold.Protein.RotatedAtoms>
   17.6305    7.6267    2.3611 H   0  0  0  0  0  0  0  0  0  0  0  0  # atno 1366 bound_to 1361
    5.1777  -10.0674    7.7638 H   0  0  0  0  0  0  0  0  0  0  0  0  # atno 2556 bound_to 2551
   -3.3087   -0.1244   -0.1846 H   0  0  0  0  0  0  0  0  0  0  0  0  # atno 2749 bound_to 2745
    1.6923   -1.4054    3.6882 H   0  0  0  0  0  0  0  0  0  0  0  0  # atno 5077 bound_to 5068
   11.3944   -2.3496    9.2914 H   0  0  0  0  0  0  0  0  0  0  0  0  # atno 5157 bound_to 5152
   15.9099   -1.1119    4.6735 H   0  0  0  0  0  0  0  0  0  0  0  0  # atno 5185 bound_to 5176
    2.9029    0.1227    2.3624 H   0  0  0  0  0  0  0  0  0  0  0  0  # atno 5712 bound_to 5703
    5.9032    3.8043    3.5946 H   0  0  0  0  0  0  0  0  0  0  0  0  # atno 8036 bound_to 8031
    0.4917   -2.1493    4.2045 LP  0  0  0  0  0  0  0  0  0  0  0  0  # atno 8267 bound_to 5068
    1.9662   -2.8363    4.0610 LP  0  0  0  0  0  0  0  0  0  0  0  0  # atno 8268 bound_to 5068
   12.3668   -1.2013    9.2669 LP  0  0  0  0  0  0  0  0  0  0  0  0  # atno 8279 bound_to 5152
   12.8390   -2.7634    9.2080 LP  0  0  0  0  0  0  0  0  0  0  0  0  # atno 8280 bound_to 5152
   16.5806    0.1683    5.0855 LP  0  0  0  0  0  0  0  0  0  0  0  0  # atno 8281 bound_to 5176
   14.9711    0.0504    4.8362 LP  0  0  0  0  0  0  0  0  0  0  0  0  # atno 8282 bound_to 5176
    2.4120   -1.2471    2.7386 LP  0  0  0  0  0  0  0  0  0  0  0  0  # atno 8283 bound_to 5703
    1.4754    0.0874    2.8310 LP  0  0  0  0  0  0  0  0  0  0  0  0  # atno 8284 bound_to 5703
    4.6073    4.4484    3.1874 LP  0  0  0  0  0  0  0  0  0  0  0  0  # atno 8309 bound_to 8031
    5.9219    5.3069    3.6362 LP  0  0  0  0  0  0  0  0  0  0  0  0  # atno 8310 bound_to 8031
   -4.3059    0.2654    0.8723 LP  0  0  0  0  0  0  0  0  0  0  0  0  # atno 8323 bound_to 2745
   -2.9424   -0.5693    1.2052 LP  0  0  0  0  0  0  0  0  0  0  0  0  # atno 8324 bound_to 2745
   18.5075    7.3029    3.5401 LP  0  0  0  0  0  0  0  0  0  0  0  0  # atno 8335 bound_to 1361
   18.5999    6.5014    2.1204 LP  0  0  0  0  0  0  0  0  0  0  0  0  # atno 8336 bound_to 1361
    4.5931   -8.6824    7.8290 LP  0  0  0  0  0  0  0  0  0  0  0  0  # atno 8342 bound_to 2551
    4.7432   -9.5161    6.4329 LP  0  0  0  0  0  0  0  0  0  0  0  0  # atno 8343 bound_to 2551

