
115|LMW3_p|sdf|115|dock11
  -GOLD-   6 82217453D 1   1.00000     0.00000

 90 93  0  0  0  0  0  0  0  0  3 V2000
    4.4025    0.7529   -1.8710 O   0  0  0  0  0  0  0  0  0  0  0  0
    4.4864   -0.1928   -1.1026 C   0  0  0  0  0  0  0  0  0  0  0  0
    3.9577   -1.3880   -1.4401 O   0  5  0  0  0  0  0  0  0  0  0  0
    5.1032   -0.1990    0.2901 C   0  0  1  0  0  0  0  0  0  0  0  0
    6.5473   -0.6728    0.1836 C   0  0  0  0  0  0  0  0  0  0  0  0
    4.8987    1.1820    0.9154 C   0  0  0  0  0  0  0  0  0  0  0  0
    7.5168    0.1237    1.0261 C   0  0  0  0  0  0  0  0  0  0  0  0
    6.9877   -1.6837   -0.5864 C   0  0  0  0  0  0  0  0  0  0  0  0
    7.9989    1.1534    0.5539 O   0  0  0  0  0  0  0  0  0  0  0  0
    7.8886   -0.3843    2.4163 C   0  0  0  0  0  0  0  0  0  0  0  0
    8.5051    0.7075    3.3195 C   0  0  2  0  0  0  0  0  0  0  0  0
    9.7906    0.2952    4.0978 C   0  0  2  0  0  0  0  0  0  0  0  0
    7.4310    1.1667    4.3247 C   0  0  0  0  0  0  0  0  0  0  0  0
   11.1681    0.3464    3.3639 C   0  0  2  0  0  0  0  0  0  0  0  0
    9.7707   -1.1183    4.7398 C   0  0  0  0  0  0  0  0  0  0  0  0
   12.0912   -0.4344    4.3760 C   0  0  1  0  0  0  0  0  0  0  0  0
   11.7869    1.7485    3.1858 C   0  0  2  0  0  0  0  0  0  0  0  0
   11.0563   -0.3555    1.9744 C   0  0  0  0  0  0  0  0  0  0  0  0
   11.2127   -1.6639    4.6753 C   0  0  0  0  0  0  0  0  0  0  0  0
   13.4767   -0.6265    3.7684 C   0  0  0  0  0  0  0  0  0  0  0  0
   12.3475    0.2730    5.7448 C   0  0  0  0  0  0  0  0  0  0  0  0
   11.0337    2.5719    2.2982 O   0  0  0  0  0  0  0  0  0  0  0  0
   13.2594    1.6559    2.7039 C   0  0  0  0  0  0  0  0  0  0  0  0
   14.0336    0.3682    3.0274 C   0  0  0  0  0  0  0  0  0  0  0  0
   14.1900   -1.9163    4.1024 C   0  0  0  0  0  0  0  0  0  0  0  0
   15.4601    0.2314    2.4276 C   0  0  2  0  0  0  0  0  0  0  0  0
   15.5707   -2.0929    3.4682 C   0  0  0  0  0  0  0  0  0  0  0  0
   16.2955   -0.7439    3.3408 C   0  0  1  0  0  0  0  0  0  0  0  0
   16.1988    1.5942    2.3804 C   0  0  0  0  0  0  0  0  0  0  0  0
   15.2398   -0.2722    0.9805 C   0  0  0  0  0  0  0  0  0  0  0  0
   17.8371   -0.8570    3.0408 C   0  0  0  0  0  0  0  0  0  0  0  0
   17.6728    1.4818    1.9849 C   0  0  0  0  0  0  0  0  0  0  0  0
   18.4552    0.5718    2.9351 C   0  0  1  0  0  0  0  0  0  0  0  0
   18.1795   -1.6677    1.7743 C   0  0  0  0  0  0  0  0  0  0  0  0
   18.5337   -1.5982    4.2179 C   0  0  0  0  0  0  0  0  0  0  0  0
   18.4412    1.1798    4.2495 O   0  0  0  0  0  0  0  0  0  0  0  0
   18.9499    2.4385    4.3480 C   0  0  0  0  0  0  0  0  0  0  0  0
   19.6498    2.9882    3.5077 O   0  0  0  0  0  0  0  0  0  0  0  0
   18.5007    3.0874    5.6170 C   0  0  0  0  0  0  0  0  0  0  0  0
   17.1988    2.5535    6.1092 C   0  0  0  0  0  0  0  0  0  0  0  0
   16.1642    2.4056    5.4828 O   0  0  0  0  0  0  0  0  0  0  0  0
   17.2605    2.1944    7.4091 O   0  5  0  0  0  0  0  0  0  0  0  0
    4.6293   -0.8890    0.9565 H   0  0  0  0  0  0  0  0  0  0  0  0
    5.1896    1.1541    1.9448 H   0  0  0  0  0  0  0  0  0  0  0  0
    3.8671    1.4569    0.8437 H   0  0  0  0  0  0  0  0  0  0  0  0
    5.4964    1.9011    0.3953 H   0  0  0  0  0  0  0  0  0  0  0  0
    6.3210   -2.2240   -1.1595 H   0  0  0  0  0  0  0  0  0  0  0  0
    7.9923   -1.9191   -0.6039 H   0  0  0  0  0  0  0  0  0  0  0  0
    8.5983   -1.1779    2.3097 H   0  0  0  0  0  0  0  0  0  0  0  0
    6.9853   -0.7127    2.8865 H   0  0  0  0  0  0  0  0  0  0  0  0
    8.8200    1.4894    2.6605 H   0  0  0  0  0  0  0  0  0  0  0  0
    9.7334    1.0868    4.8156 H   0  0  0  0  0  0  0  0  0  0  0  0
    7.7558    2.0640    4.8087 H   0  0  0  0  0  0  0  0  0  0  0  0
    7.2778    0.4019    5.0572 H   0  0  0  0  0  0  0  0  0  0  0  0
    6.5137    1.3529    3.8063 H   0  0  0  0  0  0  0  0  0  0  0  0
    9.1103   -1.7600    4.1948 H   0  0  0  0  0  0  0  0  0  0  0  0
    9.4245   -1.0733    5.7512 H   0  0  0  0  0  0  0  0  0  0  0  0
   11.7641    2.2099    4.1510 H   0  0  0  0  0  0  0  0  0  0  0  0
   10.7746   -1.3784    2.1131 H   0  0  0  0  0  0  0  0  0  0  0  0
   12.0016   -0.3105    1.4751 H   0  0  0  0  0  0  0  0  0  0  0  0
   10.3162    0.1412    1.3824 H   0  0  0  0  0  0  0  0  0  0  0  0
   11.3052   -2.3910    3.8958 H   0  0  0  0  0  0  0  0  0  0  0  0
   11.4992   -2.1509    5.5840 H   0  0  0  0  0  0  0  0  0  0  0  0
   11.4115    0.4776    6.2213 H   0  0  0  0  0  0  0  0  0  0  0  0
   12.8717    1.1910    5.5793 H   0  0  0  0  0  0  0  0  0  0  0  0
   12.9348   -0.3651    6.3716 H   0  0  0  0  0  0  0  0  0  0  0  0
   11.2994    3.4978    2.4123 H   0  0  0  0  0  0  0  0  0  0  0  0
   13.7933    2.4705    3.1472 H   0  0  0  0  0  0  0  0  0  0  0  0
   13.1978    1.6752    1.6358 H   0  0  0  0  0  0  0  0  0  0  0  0
   13.5725   -2.7274    3.7772 H   0  0  0  0  0  0  0  0  0  0  0  0
   14.3547   -1.8938    5.1593 H   0  0  0  0  0  0  0  0  0  0  0  0
   15.4562   -2.5218    2.4946 H   0  0  0  0  0  0  0  0  0  0  0  0
   16.1537   -2.7350    4.0948 H   0  0  0  0  0  0  0  0  0  0  0  0
   16.3273   -0.2801    4.3046 H   0  0  0  0  0  0  0  0  0  0  0  0
   16.1425    2.0427    3.3503 H   0  0  0  0  0  0  0  0  0  0  0  0
   15.7176    2.1848    1.6289 H   0  0  0  0  0  0  0  0  0  0  0  0
   16.1652   -0.6349    0.5843 H   0  0  0  0  0  0  0  0  0  0  0  0
   14.8829    0.5331    0.3731 H   0  0  0  0  0  0  0  0  0  0  0  0
   14.5190   -1.0630    0.9839 H   0  0  0  0  0  0  0  0  0  0  0  0
   18.1105    2.4580    2.0032 H   0  0  0  0  0  0  0  0  0  0  0  0
   17.7198    1.0541    1.0052 H   0  0  0  0  0  0  0  0  0  0  0  0
   19.4483    0.4650    2.5512 H   0  0  0  0  0  0  0  0  0  0  0  0
   18.2925   -1.0019    0.9444 H   0  0  0  0  0  0  0  0  0  0  0  0
   17.3904   -2.3610    1.5704 H   0  0  0  0  0  0  0  0  0  0  0  0
   19.0931   -2.2027    1.9294 H   0  0  0  0  0  0  0  0  0  0  0  0
   18.1491   -1.2327    5.1471 H   0  0  0  0  0  0  0  0  0  0  0  0
   19.5885   -1.4235    4.1750 H   0  0  0  0  0  0  0  0  0  0  0  0
   18.3427   -2.6483    4.1412 H   0  0  0  0  0  0  0  0  0  0  0  0
   18.3963    4.1384    5.4453 H   0  0  0  0  0  0  0  0  0  0  0  0
   19.2377    2.8786    6.3641 H   0  0  0  0  0  0  0  0  0  0  0  0
  1  2  2  0  0  0  0
  2  3  1  0  0  0  0
  2  4  1  0  0  0  0
  4  5  1  0  0  0  0
  4  6  1  0  0  0  0
  4 43  1  0  0  0  0
  5  7  1  0  0  0  0
  5  8  2  0  0  0  0
  6 44  1  0  0  0  0
  6 45  1  0  0  0  0
  6 46  1  0  0  0  0
  7  9  2  0  0  0  0
  7 10  1  0  0  0  0
  8 47  1  0  0  0  0
  8 48  1  0  0  0  0
 10 11  1  0  0  0  0
 10 49  1  0  0  0  0
 10 50  1  0  0  0  0
 11 12  1  0  0  0  0
 11 13  1  0  0  0  0
 11 51  1  0  0  0  0
 12 14  1  0  0  0  0
 12 15  1  0  0  0  0
 12 52  1  0  0  0  0
 13 53  1  0  0  0  0
 13 54  1  0  0  0  0
 13 55  1  0  0  0  0
 14 16  1  0  0  0  0
 14 17  1  0  0  0  0
 14 18  1  0  0  0  0
 15 19  1  0  0  0  0
 15 56  1  0  0  0  0
 15 57  1  0  0  0  0
 16 20  1  0  0  0  0
 16 21  1  0  0  0  0
 16 19  1  0  0  0  0
 17 22  1  0  0  0  0
 17 23  1  0  0  0  0
 17 58  1  0  0  0  0
 18 59  1  0  0  0  0
 18 60  1  0  0  0  0
 18 61  1  0  0  0  0
 19 62  1  0  0  0  0
 19 63  1  0  0  0  0
 20 24  2  0  0  0  0
 20 25  1  0  0  0  0
 21 64  1  0  0  0  0
 21 65  1  0  0  0  0
 21 66  1  0  0  0  0
 22 67  1  0  0  0  0
 23 24  1  0  0  0  0
 23 68  1  0  0  0  0
 23 69  1  0  0  0  0
 24 26  1  0  0  0  0
 25 27  1  0  0  0  0
 25 70  1  0  0  0  0
 25 71  1  0  0  0  0
 26 28  1  0  0  0  0
 26 29  1  0  0  0  0
 26 30  1  0  0  0  0
 27 28  1  0  0  0  0
 27 72  1  0  0  0  0
 27 73  1  0  0  0  0
 28 31  1  0  0  0  0
 28 74  1  0  0  0  0
 29 32  1  0  0  0  0
 29 75  1  0  0  0  0
 29 76  1  0  0  0  0
 30 77  1  0  0  0  0
 30 78  1  0  0  0  0
 30 79  1  0  0  0  0
 31 33  1  0  0  0  0
 31 34  1  0  0  0  0
 31 35  1  0  0  0  0
 32 33  1  0  0  0  0
 32 80  1  0  0  0  0
 32 81  1  0  0  0  0
 33 36  1  0  0  0  0
 33 82  1  0  0  0  0
 34 83  1  0  0  0  0
 34 84  1  0  0  0  0
 34 85  1  0  0  0  0
 35 86  1  0  0  0  0
 35 87  1  0  0  0  0
 35 88  1  0  0  0  0
 36 37  1  0  0  0  0
 37 38  2  0  0  0  0
 37 39  1  0  0  0  0
 39 40  1  0  0  0  0
 39 89  1  0  0  0  0
 39 90  1  0  0  0  0
 40 41  2  0  0  0  0
 40 42  1  0  0  0  0
M  CHG  1   3  -1
M  CHG  1  42  -1
M  END
>  <Code-name>
115

>  <Compound>
Fomitopsina A

>  <Specie>
Fomitopsis sp.

>  <Reference>
Gründemann (2020)

>  <Organism>
N/A

>  <Smiles>
C[C@H](CC(C([C@@H](C)C(O)=O)=C)=O)[C@@H](CC1)[C@@](C)([C@@H](C2)O)[C@]1(C)C(CC1)=C2[C@@](C)(CC2)[C@@H]1C(C)(C)[C@@H]2OC(CC(O)=O)=O

>  <MMFF94 Energy>
84.506

>  <Total Molweight>
586.763

>  <Molweight>
586.763

>  <Monoisotopic Mass>
586.350570

>  <cLogP>
5.1879

>  <cLogS>
-5.663

>  <H-Acceptors>
8

>  <H-Donors>
3

>  <Total Surface Area>
431.52

>  <Relative PSA>
0.23512

>  <Polar Surface Area>
138.2

>  <Druglikeness>
-13.514

>  <Mutagenic>
none

>  <Tumorigenic>
none

>  <Reproductive Effective>
none

>  <Irritant>
none

>  <Nasty Functions>


>  <Shape Index>
0.5

>  <Molecular Flexibility>
0.3963

>  <Molecular Complexity>
1.0376

>  <Fragments>
1

>  <Non-H Atoms>
42

>  <Non-C/H Atoms>
8

>  <Metal-Atoms>
0

>  <Electronegative Atoms>
8

>  <Stereo Centers>
9

>  <Rotatable Bonds>
10

>  <Rings Closures>
4

>  <Small Rings>
4

>  <Aromatic Rings>
0

>  <Aromatic Atoms>
0

>  <sp3-Atoms>
30

>  <Symmetric atoms>
1

>  <Amides>
0

>  <Amines>
0

>  <Alkyl-Amines>
0

>  <Aromatic Amines>
0

>  <Aromatic Nitrogens>
0

>  <Basic Nitrogens>
0

>  <Acidic Oxygens>
2

>  <Stereo Configuration>
this enantiomer

> <Gold.Version>
5.8.1

> <Gold.Id.Protein>
ID_2|Prot_COX2_5IKQ_Alig|mol2

> <Gold.Goldscore.Fitness>
0.0000

> <Gold.Goldscore.Internal.Vdw>
-35.6926

> <Gold.Goldscore.Internal.Torsion>
-18.0492

> <Gold.Goldscore.External.Vdw>
-963.3029

> <Gold.Goldscore.Internal.HBond>
0.0000

> <Gold.Goldscore.External.HBond>
0.3760

> <Gold.Goldscore.Internal.Correction>
-41.3933

> <Gold.Goldscore.Hbonds>
donor molecule, donor type, donor heavy atom, donor atom, acceptor molecule, acceptor atom, score
      P1  H  1377  1389       L1    41  0.80
      P1  H  5176  5185       L1    41  0.35

> <Gold.Goldscore.Internal.Vdw.Weighted>
-35.6926

> <Gold.Goldscore.Internal.Torsion.Weighted>
-18.0492

> <Gold.Goldscore.External.Vdw.Weighted>
-1324.5415

> <Gold.Goldscore.Internal.HBond.Weighted>
0.0000

> <Gold.Goldscore.External.HBond.Weighted>
0.3760

> <Gold.Goldscore.Internal.Correction.Weighted>
-41.3933

> <Gold.Protein.RotatedTorsions>
[ 5077 5068 5067 5065 ] final  -94.28 input  179.94 | X-H torsion
[ 5157 5152 5151 5148 ] final  133.67 input -179.92 | X-H torsion
[ 5185 5176 5175 5173 ] final -144.84 input -179.99 | X-H torsion
[ 5712 5703 5702 5700 ] final   97.03 input  180.00 | X-H torsion
[ 8036 8031 8030 8027 ] final  150.53 input -179.94 | X-H torsion
[ 2749 2745 2743 2740 ] final   -3.80 input  -60.05 | X-H torsion
[ 1366 1361 1360 1357 ] final -159.93 input  -60.09 | X-H torsion
[ 2556 2551 2550 2547 ] final  -35.66 input   59.97 | X-H torsion

> <Gold.Protein.ActiveResidues>
 PRO86   VAL89   HIS90   LEU93   THR94   ILE112  MET113  TYR115  VAL116  LEU117 
 THR118  SER119  ARG120  SER121  LEU123  ILE124  GLN192  SER194  PHE198  PHE201 
 ALA202  GLN203  PHE205  THR206  PHE209  PHE210  VAL228  ILE341  ILE343  VAL344 
 ILE345  GLU346  ASP347  TYR348  VAL349  GLN350  HIS351  LEU352  SER353  GLY354 
 TYR355  PHE357  LEU359  LYS360  GLU380  PHE381  ASN382  THR383  LEU384  TYR385 
 HIS386  TRP387  LEU390  VAL434  LEU507  ARG513  ALA516  ILE517  PHE518  GLY519 
 GLU520  THR521  MET522  VAL523  GLU524  VAL525  GLY526  ALA527  PRO528  PHE529 
 SER530  LEU531  LYS532  GLY533  LEU534  MET535  COH609 

> <Gold.Protein.RotatedAtoms>
   18.7753    6.9088    3.1383 H   0  0  0  0  0  0  0  0  0  0  0  0  # atno 1366 bound_to 1361
    4.8886   -9.3081    8.1431 H   0  0  0  0  0  0  0  0  0  0  0  0  # atno 2556 bound_to 2551
   -4.0965    0.1778    0.9975 H   0  0  0  0  0  0  0  0  0  0  0  0  # atno 2749 bound_to 2745
    2.0057   -2.5931    4.0170 H   0  0  0  0  0  0  0  0  0  0  0  0  # atno 5077 bound_to 5068
   12.8612   -1.7822    9.1736 H   0  0  0  0  0  0  0  0  0  0  0  0  # atno 5157 bound_to 5152
   16.0660    0.3547    5.1160 H   0  0  0  0  0  0  0  0  0  0  0  0  # atno 5185 bound_to 5176
    2.9659   -0.7091    2.4569 H   0  0  0  0  0  0  0  0  0  0  0  0  # atno 5712 bound_to 5703
    5.3982    3.6957    3.4205 H   0  0  0  0  0  0  0  0  0  0  0  0  # atno 8036 bound_to 8031
    1.5400   -1.2212    3.6139 LP  0  0  0  0  0  0  0  0  0  0  0  0  # atno 8267 bound_to 5068
    0.5426   -2.3423    4.2580 LP  0  0  0  0  0  0  0  0  0  0  0  0  # atno 8268 bound_to 5068
   12.0720   -3.0601    9.2696 LP  0  0  0  0  0  0  0  0  0  0  0  0  # atno 8279 bound_to 5152
   11.3794   -1.5832    9.3462 LP  0  0  0  0  0  0  0  0  0  0  0  0  # atno 8280 bound_to 5152
   14.9126   -0.4994    4.6704 LP  0  0  0  0  0  0  0  0  0  0  0  0  # atno 8281 bound_to 5176
   16.4517   -1.0428    4.7201 LP  0  0  0  0  0  0  0  0  0  0  0  0  # atno 8282 bound_to 5176
    1.5413   -0.7828    2.9299 LP  0  0  0  0  0  0  0  0  0  0  0  0  # atno 8283 bound_to 5703
    2.2705    0.6214    2.5262 LP  0  0  0  0  0  0  0  0  0  0  0  0  # atno 8284 bound_to 5703
    4.8052    5.0667    3.2513 LP  0  0  0  0  0  0  0  0  0  0  0  0  # atno 8309 bound_to 8031
    6.3298    4.8190    3.7811 LP  0  0  0  0  0  0  0  0  0  0  0  0  # atno 8310 bound_to 8031
   -2.8191   -0.6166    1.0201 LP  0  0  0  0  0  0  0  0  0  0  0  0  # atno 8323 bound_to 2745
   -3.4857   -0.0493   -0.3584 LP  0  0  0  0  0  0  0  0  0  0  0  0  # atno 8324 bound_to 2745
   18.1142    6.8059    1.7906 LP  0  0  0  0  0  0  0  0  0  0  0  0  # atno 8335 bound_to 1361
   17.6238    7.8570    2.9402 LP  0  0  0  0  0  0  0  0  0  0  0  0  # atno 8336 bound_to 1361
    4.4824   -8.8314    6.7749 LP  0  0  0  0  0  0  0  0  0  0  0  0  # atno 8342 bound_to 2551
    5.1997  -10.2755    7.0333 LP  0  0  0  0  0  0  0  0  0  0  0  0  # atno 8343 bound_to 2551

