
120|LMW3_p|sdf|120|dock1
  -GOLD-   6 922 5 63D 1   1.00000     0.00000

 82 85  0  0  0  0  0  0  0  0  2 V2000
   16.7877    2.9363    6.8729 O   0  0  0  0  0  0  0  0  0  0  0  0
   15.5867    2.8280    6.6925 C   0  0  0  0  0  0  0  0  0  0  0  0
   14.7253    3.0068    7.7128 O   0  5  0  0  0  0  0  0  0  0  0  0
   14.8804    2.5262    5.3813 C   0  0  2  0  0  0  0  0  0  0  0  0
   13.4074    2.1167    5.6441 C   0  0  2  0  0  0  0  0  0  0  0  0
   15.7452    1.5218    4.5958 C   0  0  0  0  0  0  0  0  0  0  0  0
   12.5521    1.5363    4.4766 C   0  0  2  0  0  0  0  0  0  0  0  0
   12.5532    3.3373    6.1107 C   0  0  0  0  0  0  0  0  0  0  0  0
   17.2383    1.8674    4.5211 C   0  0  0  0  0  0  0  0  0  0  0  0
   11.0903    1.7092    5.0382 C   0  0  1  0  0  0  0  0  0  0  0  0
   12.7429    0.0512    4.1508 C   0  0  0  0  0  0  0  0  0  0  0  0
   12.8147    2.3650    3.1787 C   0  0  0  0  0  0  0  0  0  0  0  0
   11.1432    3.1700    5.5153 C   0  0  0  0  0  0  0  0  0  0  0  0
   17.9524    1.2311    3.3414 C   0  0  0  0  0  0  0  0  0  0  0  0
   10.0641    1.3124    3.9821 C   0  0  0  0  0  0  0  0  0  0  0  0
   10.7501    0.8308    6.2829 C   0  0  0  0  0  0  0  0  0  0  0  0
   11.6627   -0.4660    3.1765 C   0  0  0  0  0  0  0  0  0  0  0  0
   18.7808    1.9739    2.5832 C   0  0  0  0  0  0  0  0  0  0  0  0
   17.6908   -0.2252    2.9686 C   0  0  0  0  0  0  0  0  0  0  0  0
   10.3199    0.2718    3.1465 C   0  0  0  0  0  0  0  0  0  0  0  0
    8.7617    2.0799    3.9808 C   0  0  0  0  0  0  0  0  0  0  0  0
   18.2539   -0.5784    1.5896 C   0  0  0  0  0  0  0  0  0  0  0  0
   18.1626   -1.2294    4.0227 C   0  0  0  0  0  0  0  0  0  0  0  0
    9.2861   -0.1864    2.0805 C   0  0  2  0  0  0  0  0  0  0  0  0
    7.7589    1.6826    2.8968 C   0  0  0  0  0  0  0  0  0  0  0  0
    7.8423    0.1796    2.5925 C   0  0  1  0  0  0  0  0  0  0  0  0
    9.3323   -1.7200    1.8524 C   0  0  0  0  0  0  0  0  0  0  0  0
    9.7067    0.5313    0.7755 C   0  0  0  0  0  0  0  0  0  0  0  0
    6.6285   -0.3850    1.7705 C   0  0  0  0  0  0  0  0  0  0  0  0
    8.2157   -2.2378    0.9494 C   0  0  0  0  0  0  0  0  0  0  0  0
    6.8414   -1.8955    1.5069 C   0  0  0  0  0  0  0  0  0  0  0  0
    6.3532    0.3501    0.4454 C   0  0  0  0  0  0  0  0  0  0  0  0
    5.3290   -0.2604    2.6113 C   0  0  0  0  0  0  0  0  0  0  0  0
   14.7884    3.3879    4.7537 H   0  0  0  0  0  0  0  0  0  0  0  0
   13.5761    1.3388    6.3591 H   0  0  0  0  0  0  0  0  0  0  0  0
   15.3667    1.4692    3.5963 H   0  0  0  0  0  0  0  0  0  0  0  0
   15.6801    0.5944    5.1255 H   0  0  0  0  0  0  0  0  0  0  0  0
   12.9929    4.2470    5.7585 H   0  0  0  0  0  0  0  0  0  0  0  0
   12.5085    3.3798    7.1790 H   0  0  0  0  0  0  0  0  0  0  0  0
   17.7085    1.5319    5.4218 H   0  0  0  0  0  0  0  0  0  0  0  0
   17.3087    2.9276    4.3952 H   0  0  0  0  0  0  0  0  0  0  0  0
   12.6885   -0.5121    5.0589 H   0  0  0  0  0  0  0  0  0  0  0  0
   13.6974   -0.0661    3.6817 H   0  0  0  0  0  0  0  0  0  0  0  0
   13.2301    3.3156    3.4404 H   0  0  0  0  0  0  0  0  0  0  0  0
   11.8926    2.5104    2.6557 H   0  0  0  0  0  0  0  0  0  0  0  0
   13.5012    1.8364    2.5508 H   0  0  0  0  0  0  0  0  0  0  0  0
   10.9988    3.8404    4.6939 H   0  0  0  0  0  0  0  0  0  0  0  0
   10.3750    3.3911    6.2266 H   0  0  0  0  0  0  0  0  0  0  0  0
    9.8307    1.1660    6.7154 H   0  0  0  0  0  0  0  0  0  0  0  0
   11.5356    0.9155    7.0046 H   0  0  0  0  0  0  0  0  0  0  0  0
   10.6510   -0.1912    5.9820 H   0  0  0  0  0  0  0  0  0  0  0  0
   11.4620   -1.4852    3.4333 H   0  0  0  0  0  0  0  0  0  0  0  0
   12.0791   -0.3106    2.2032 H   0  0  0  0  0  0  0  0  0  0  0  0
   18.9618    2.9594    2.8302 H   0  0  0  0  0  0  0  0  0  0  0  0
   19.2349    1.5577    1.7551 H   0  0  0  0  0  0  0  0  0  0  0  0
   16.6250   -0.3101    2.9280 H   0  0  0  0  0  0  0  0  0  0  0  0
    8.9915    3.1170    3.8519 H   0  0  0  0  0  0  0  0  0  0  0  0
    8.2885    1.8530    4.9133 H   0  0  0  0  0  0  0  0  0  0  0  0
   17.8981    0.1269    0.8678 H   0  0  0  0  0  0  0  0  0  0  0  0
   17.9342   -1.5619    1.3151 H   0  0  0  0  0  0  0  0  0  0  0  0
   19.3229   -0.5469    1.6221 H   0  0  0  0  0  0  0  0  0  0  0  0
   17.8565   -0.8982    4.9930 H   0  0  0  0  0  0  0  0  0  0  0  0
   19.2295   -1.3044    3.9916 H   0  0  0  0  0  0  0  0  0  0  0  0
   17.7317   -2.1876    3.8205 H   0  0  0  0  0  0  0  0  0  0  0  0
    7.9728    2.2325    2.0041 H   0  0  0  0  0  0  0  0  0  0  0  0
    6.7728    1.9048    3.2474 H   0  0  0  0  0  0  0  0  0  0  0  0
    7.7163   -0.3636    3.5057 H   0  0  0  0  0  0  0  0  0  0  0  0
    9.2518   -2.2058    2.8023 H   0  0  0  0  0  0  0  0  0  0  0  0
   10.2582   -1.9364    1.3617 H   0  0  0  0  0  0  0  0  0  0  0  0
   10.5886    1.1100    0.9550 H   0  0  0  0  0  0  0  0  0  0  0  0
    8.9164    1.1764    0.4526 H   0  0  0  0  0  0  0  0  0  0  0  0
    9.9058   -0.1963    0.0166 H   0  0  0  0  0  0  0  0  0  0  0  0
    8.3016   -3.3010    0.8655 H   0  0  0  0  0  0  0  0  0  0  0  0
    8.3149   -1.7701   -0.0079 H   0  0  0  0  0  0  0  0  0  0  0  0
    6.1026   -2.2223    0.8054 H   0  0  0  0  0  0  0  0  0  0  0  0
    6.7584   -2.3898    2.4522 H   0  0  0  0  0  0  0  0  0  0  0  0
    6.3471    1.4061    0.6180 H   0  0  0  0  0  0  0  0  0  0  0  0
    5.4024    0.0463    0.0598 H   0  0  0  0  0  0  0  0  0  0  0  0
    7.1187    0.1087   -0.2621 H   0  0  0  0  0  0  0  0  0  0  0  0
    4.5784   -0.9060    2.2055 H   0  0  0  0  0  0  0  0  0  0  0  0
    4.9821    0.7514    2.5840 H   0  0  0  0  0  0  0  0  0  0  0  0
    5.5312   -0.5409    3.6239 H   0  0  0  0  0  0  0  0  0  0  0  0
  1  2  2  0  0  0  0
  2  3  1  0  0  0  0
  2  4  1  0  0  0  0
  4  5  1  0  0  0  0
  4  6  1  0  0  0  0
  4 34  1  0  0  0  0
  5  7  1  0  0  0  0
  5  8  1  0  0  0  0
  5 35  1  0  0  0  0
  6  9  1  0  0  0  0
  6 36  1  0  0  0  0
  6 37  1  0  0  0  0
  7 10  1  0  0  0  0
  7 11  1  0  0  0  0
  7 12  1  0  0  0  0
  8 13  1  0  0  0  0
  8 38  1  0  0  0  0
  8 39  1  0  0  0  0
  9 14  1  0  0  0  0
  9 40  1  0  0  0  0
  9 41  1  0  0  0  0
 10 15  1  0  0  0  0
 10 16  1  0  0  0  0
 10 13  1  0  0  0  0
 11 17  1  0  0  0  0
 11 42  1  0  0  0  0
 11 43  1  0  0  0  0
 12 44  1  0  0  0  0
 12 45  1  0  0  0  0
 12 46  1  0  0  0  0
 13 47  1  0  0  0  0
 13 48  1  0  0  0  0
 14 18  2  0  0  0  0
 14 19  1  0  0  0  0
 15 20  2  0  0  0  0
 15 21  1  0  0  0  0
 16 49  1  0  0  0  0
 16 50  1  0  0  0  0
 16 51  1  0  0  0  0
 17 20  1  0  0  0  0
 17 52  1  0  0  0  0
 17 53  1  0  0  0  0
 18 54  1  0  0  0  0
 18 55  1  0  0  0  0
 19 22  1  0  0  0  0
 19 23  1  0  0  0  0
 19 56  1  0  0  0  0
 20 24  1  0  0  0  0
 21 25  1  0  0  0  0
 21 57  1  0  0  0  0
 21 58  1  0  0  0  0
 22 59  1  0  0  0  0
 22 60  1  0  0  0  0
 22 61  1  0  0  0  0
 23 62  1  0  0  0  0
 23 63  1  0  0  0  0
 23 64  1  0  0  0  0
 24 26  1  0  0  0  0
 24 27  1  0  0  0  0
 24 28  1  0  0  0  0
 25 26  1  0  0  0  0
 25 65  1  0  0  0  0
 25 66  1  0  0  0  0
 26 29  1  0  0  0  0
 26 67  1  0  0  0  0
 27 30  1  0  0  0  0
 27 68  1  0  0  0  0
 27 69  1  0  0  0  0
 28 70  1  0  0  0  0
 28 71  1  0  0  0  0
 28 72  1  0  0  0  0
 29 31  1  0  0  0  0
 29 32  1  0  0  0  0
 29 33  1  0  0  0  0
 30 31  1  0  0  0  0
 30 73  1  0  0  0  0
 30 74  1  0  0  0  0
 31 75  1  0  0  0  0
 31 76  1  0  0  0  0
 32 77  1  0  0  0  0
 32 78  1  0  0  0  0
 32 79  1  0  0  0  0
 33 80  1  0  0  0  0
 33 81  1  0  0  0  0
 33 82  1  0  0  0  0
M  CHG  1   3  -1
M  END
>  <Code-name>
120

>  <Compound>
lanostanoids 4

>  <Specie>
Inonotus obliquus.

>  <Reference>
GrÃ¼ndemann (2020)

>  <Organism>
N/A

>  <Smiles>
CC(C)C(CC[C@@H]([C@@H](CC1)[C@@](C)(CC2)[C@]1(C)C(CC1)=C2[C@]2(C)[C@@H]1C(C)(C)CCC2)C(O)=O)=C

>  <MMFF94 Energy>
95.461

>  <Total Molweight>
454.736

>  <Molweight>
454.736

>  <Monoisotopic Mass>
454.381080

>  <cLogP>
8.2824

>  <cLogS>
-6.654

>  <H-Acceptors>
2

>  <H-Donors>
1

>  <Total Surface Area>
358.09

>  <Relative PSA>
0.072998

>  <Polar Surface Area>
37.3

>  <Druglikeness>
-9.9467

>  <Mutagenic>
none

>  <Tumorigenic>
none

>  <Reproductive Effective>
none

>  <Irritant>
none

>  <Nasty Functions>


>  <Shape Index>
0.45455

>  <Molecular Flexibility>
0.35395

>  <Molecular Complexity>
0.99393

>  <Fragments>
1

>  <Non-H Atoms>
33

>  <Non-C/H Atoms>
2

>  <Metal-Atoms>
0

>  <Electronegative Atoms>
2

>  <Stereo Centers>
6

>  <Rotatable Bonds>
6

>  <Rings Closures>
4

>  <Small Rings>
4

>  <Aromatic Rings>
0

>  <Aromatic Atoms>
0

>  <sp3-Atoms>
27

>  <Symmetric atoms>
2

>  <Amides>
0

>  <Amines>
0

>  <Alkyl-Amines>
0

>  <Aromatic Amines>
0

>  <Aromatic Nitrogens>
0

>  <Basic Nitrogens>
0

>  <Acidic Oxygens>
1

>  <Stereo Configuration>
this enantiomer

> <Gold.Version>
5.8.1

> <Gold.Id.Protein>
ID_2|Prot_COX2_5IKQ_Alig|mol2

> <Gold.Goldscore.Fitness>
-49.3986

> <Gold.Goldscore.Internal.Vdw>
-35.3385

> <Gold.Goldscore.Internal.Torsion>
-9.1612

> <Gold.Goldscore.External.Vdw>
-24.1267

> <Gold.Goldscore.Internal.HBond>
0.0000

> <Gold.Goldscore.External.HBond>
0.0000

> <Gold.Goldscore.Internal.Correction>
-28.2753

> <Gold.Goldscore.Internal.Vdw.Weighted>
-35.3385

> <Gold.Goldscore.Internal.Torsion.Weighted>
-9.1612

> <Gold.Goldscore.External.Vdw.Weighted>
-33.1742

> <Gold.Goldscore.Internal.HBond.Weighted>
0.0000

> <Gold.Goldscore.External.HBond.Weighted>
0.0000

> <Gold.Goldscore.Internal.Correction.Weighted>
-28.2753

> <Gold.Protein.RotatedTorsions>
[ 5077 5068 5067 5065 ] final -147.36 input  179.94 | X-H torsion
[ 5157 5152 5151 5148 ] final -114.06 input -179.92 | X-H torsion
[ 5185 5176 5175 5173 ] final   74.63 input -179.99 | X-H torsion
[ 5712 5703 5702 5700 ] final -114.09 input  180.00 | X-H torsion
[ 8036 8031 8030 8027 ] final   89.24 input -179.94 | X-H torsion
[ 2749 2745 2743 2740 ] final -169.83 input  -60.05 | X-H torsion
[ 1366 1361 1360 1357 ] final  -75.72 input  -60.09 | X-H torsion
[ 2556 2551 2550 2547 ] final  -80.03 input   59.97 | X-H torsion

> <Gold.Protein.ActiveResidues>
 PRO86   VAL89   HIS90   LEU93   THR94   ILE112  MET113  TYR115  VAL116  LEU117 
 THR118  SER119  ARG120  SER121  LEU123  ILE124  GLN192  SER194  PHE198  PHE201 
 ALA202  GLN203  PHE205  THR206  PHE209  PHE210  VAL228  ILE341  ILE343  VAL344 
 ILE345  GLU346  ASP347  TYR348  VAL349  GLN350  HIS351  LEU352  SER353  GLY354 
 TYR355  PHE357  LEU359  LYS360  GLU380  PHE381  ASN382  THR383  LEU384  TYR385 
 HIS386  TRP387  LEU390  VAL434  LEU507  ARG513  ALA516  ILE517  PHE518  GLY519 
 GLU520  THR521  MET522  VAL523  GLU524  VAL525  GLY526  ALA527  PRO528  PHE529 
 SER530  LEU531  LYS532  GLY533  LEU534  MET535  COH609 

> <Gold.Protein.RotatedAtoms>
   18.0458    7.6699    3.2484 H   0  0  0  0  0  0  0  0  0  0  0  0  # atno 1366 bound_to 1361
    4.6303   -8.8665    7.8358 H   0  0  0  0  0  0  0  0  0  0  0  0  # atno 2556 bound_to 2551
   -2.8286   -0.4720    0.3428 H   0  0  0  0  0  0  0  0  0  0  0  0  # atno 2749 bound_to 2745
    2.1530   -1.9536    3.7584 H   0  0  0  0  0  0  0  0  0  0  0  0  # atno 5077 bound_to 5068
   11.5678   -1.5855    9.2858 H   0  0  0  0  0  0  0  0  0  0  0  0  # atno 5157 bound_to 5152
   15.1627   -0.7385    4.6809 H   0  0  0  0  0  0  0  0  0  0  0  0  # atno 5185 bound_to 5176
    1.9038    0.3634    2.6216 H   0  0  0  0  0  0  0  0  0  0  0  0  # atno 5712 bound_to 5703
    4.8122    4.2055    3.2137 H   0  0  0  0  0  0  0  0  0  0  0  0  # atno 8036 bound_to 8031
    0.7596   -1.4007    3.8772 LP  0  0  0  0  0  0  0  0  0  0  0  0  # atno 8267 bound_to 5068
    1.1466   -2.9286    4.3043 LP  0  0  0  0  0  0  0  0  0  0  0  0  # atno 8268 bound_to 5068
   13.0492   -1.8372    9.2013 LP  0  0  0  0  0  0  0  0  0  0  0  0  # atno 8279 bound_to 5152
   11.9491   -3.0414    9.2803 LP  0  0  0  0  0  0  0  0  0  0  0  0  # atno 8280 bound_to 5152
   16.6582   -0.7928    4.8196 LP  0  0  0  0  0  0  0  0  0  0  0  0  # atno 8281 bound_to 5176
   15.7906    0.5632    5.0933 LP  0  0  0  0  0  0  0  0  0  0  0  0  # atno 8282 bound_to 5176
    3.2143   -0.3316    2.3799 LP  0  0  0  0  0  0  0  0  0  0  0  0  # atno 8283 bound_to 5703
    1.8723   -1.1170    2.8786 LP  0  0  0  0  0  0  0  0  0  0  0  0  # atno 8284 bound_to 5703
    5.6571    5.4043    3.5438 LP  0  0  0  0  0  0  0  0  0  0  0  0  # atno 8309 bound_to 8031
    6.1810    3.8698    3.7367 LP  0  0  0  0  0  0  0  0  0  0  0  0  # atno 8310 bound_to 8031
   -4.0845    0.2576   -0.0493 LP  0  0  0  0  0  0  0  0  0  0  0  0  # atno 8323 bound_to 2745
   -3.7389   -0.1451    1.4951 LP  0  0  0  0  0  0  0  0  0  0  0  0  # atno 8324 bound_to 2745
   18.8939    6.5319    2.7486 LP  0  0  0  0  0  0  0  0  0  0  0  0  # atno 8335 bound_to 1361
   17.7167    7.2206    1.8506 LP  0  0  0  0  0  0  0  0  0  0  0  0  # atno 8336 bound_to 1361
    4.6997   -9.4208    6.4386 LP  0  0  0  0  0  0  0  0  0  0  0  0  # atno 8342 bound_to 2551
    5.2916  -10.2145    7.7372 LP  0  0  0  0  0  0  0  0  0  0  0  0  # atno 8343 bound_to 2551

