
121|LMW3_p|sdf|121|dock2
  -GOLD-   6 922 5 83D 1   1.00000     0.00000

 85 88  0  0  0  0  0  0  0  0  2 V2000
    9.4377    4.0344    5.1574 O   0  0  0  0  0  0  0  0  0  0  0  0
   10.0785    3.6795    4.1827 C   0  0  0  0  0  0  0  0  0  0  0  0
    9.8679    4.2541    2.9823 O   0  5  0  0  0  0  0  0  0  0  0  0
   11.1722    2.6255    4.1386 C   0  0  2  0  0  0  0  0  0  0  0  0
   10.5687    1.2100    4.3384 C   0  0  2  0  0  0  0  0  0  0  0  0
   12.2778    3.0435    5.1254 C   0  0  0  0  0  0  0  0  0  0  0  0
   11.4967   -0.0402    4.2412 C   0  0  2  0  0  0  0  0  0  0  0  0
    9.4781    0.9014    3.2644 C   0  0  0  0  0  0  0  0  0  0  0  0
   11.8337    3.1641    6.5899 C   0  0  0  0  0  0  0  0  0  0  0  0
   10.4494   -1.1984    4.0300 C   0  0  1  0  0  0  0  0  0  0  0  0
   12.3166   -0.3918    5.4866 C   0  0  0  0  0  0  0  0  0  0  0  0
   12.4755    0.1318    3.0362 C   0  0  0  0  0  0  0  0  0  0  0  0
    9.5842   -0.5935    2.9122 C   0  0  0  0  0  0  0  0  0  0  0  0
   11.3228    4.5518    6.8734 C   0  0  0  0  0  0  0  0  0  0  0  0
   11.1634   -2.5229    3.7790 C   0  0  0  0  0  0  0  0  0  0  0  0
    9.5073   -1.4703    5.2444 C   0  0  0  0  0  0  0  0  0  0  0  0
   12.9816   -1.7792    5.3629 C   0  0  0  0  0  0  0  0  0  0  0  0
   10.4075    4.9374    7.7843 C   0  0  0  0  0  0  0  0  0  0  0  0
   12.3197   -2.8046    4.4348 C   0  0  0  0  0  0  0  0  0  0  0  0
   10.4803   -3.4926    2.8428 C   0  0  0  0  0  0  0  0  0  0  0  0
    9.6749    4.0279    8.7313 C   0  0  0  0  0  0  0  0  0  0  0  0
   10.0347    6.3918    7.9221 C   0  0  0  0  0  0  0  0  0  0  0  0
   13.0587   -4.1567    4.2357 C   0  0  2  0  0  0  0  0  0  0  0  0
   11.2349   -4.7954    2.5758 C   0  0  0  0  0  0  0  0  0  0  0  0
   12.0046   -5.2529    3.8246 C   0  0  1  0  0  0  0  0  0  0  0  0
   13.7498   -4.6295    5.5403 C   0  0  0  0  0  0  0  0  0  0  0  0
   14.1399   -3.8757    3.1648 C   0  0  0  0  0  0  0  0  0  0  0  0
   12.5100   -6.7430    3.7738 C   0  0  0  0  0  0  0  0  0  0  0  0
   14.3301   -6.0368    5.4508 C   0  0  0  0  0  0  0  0  0  0  0  0
   13.2582   -7.0693    5.1039 C   0  0  2  0  0  0  0  0  0  0  0  0
   13.3756   -7.0792    2.5411 C   0  0  0  0  0  0  0  0  0  0  0  0
   11.2836   -7.6981    3.6998 C   0  0  0  0  0  0  0  0  0  0  0  0
   13.8785   -8.3690    4.9986 O   0  0  0  0  0  0  0  0  0  0  0  0
   14.2643   -8.9560    6.1639 C   0  0  0  0  0  0  0  0  0  0  0  0
   13.9337   -8.6039    7.2868 O   0  0  0  0  0  0  0  0  0  0  0  0
   15.1689  -10.1140    5.8734 C   0  0  0  0  0  0  0  0  0  0  0  0
   11.6415    2.5620    3.1791 H   0  0  0  0  0  0  0  0  0  0  0  0
   10.2398    1.3101    5.3516 H   0  0  0  0  0  0  0  0  0  0  0  0
   12.6567    3.9947    4.8148 H   0  0  0  0  0  0  0  0  0  0  0  0
   13.0097    2.2634    5.0998 H   0  0  0  0  0  0  0  0  0  0  0  0
    9.6476    1.4954    2.3907 H   0  0  0  0  0  0  0  0  0  0  0  0
    8.5032    1.1313    3.6409 H   0  0  0  0  0  0  0  0  0  0  0  0
   12.6672    2.9584    7.2286 H   0  0  0  0  0  0  0  0  0  0  0  0
   11.0472    2.4618    6.7720 H   0  0  0  0  0  0  0  0  0  0  0  0
   11.6691   -0.3929    6.3385 H   0  0  0  0  0  0  0  0  0  0  0  0
   13.0905    0.3394    5.5922 H   0  0  0  0  0  0  0  0  0  0  0  0
   11.9161    0.3513    2.1508 H   0  0  0  0  0  0  0  0  0  0  0  0
   13.0284   -0.7732    2.8938 H   0  0  0  0  0  0  0  0  0  0  0  0
   13.1526    0.9353    3.2385 H   0  0  0  0  0  0  0  0  0  0  0  0
   10.0534   -0.7242    1.9595 H   0  0  0  0  0  0  0  0  0  0  0  0
    8.6247   -1.0622    2.8450 H   0  0  0  0  0  0  0  0  0  0  0  0
   11.7258    5.3056    6.2950 H   0  0  0  0  0  0  0  0  0  0  0  0
   10.0881   -1.8042    6.0787 H   0  0  0  0  0  0  0  0  0  0  0  0
    8.7948   -2.2241    4.9814 H   0  0  0  0  0  0  0  0  0  0  0  0
    8.9931   -0.5690    5.5057 H   0  0  0  0  0  0  0  0  0  0  0  0
   13.0124   -2.2077    6.3429 H   0  0  0  0  0  0  0  0  0  0  0  0
   13.9343   -1.5846    4.9165 H   0  0  0  0  0  0  0  0  0  0  0  0
   10.3352   -2.9981    1.9051 H   0  0  0  0  0  0  0  0  0  0  0  0
    9.5696   -3.7757    3.3279 H   0  0  0  0  0  0  0  0  0  0  0  0
    8.6206    4.1292    8.5793 H   0  0  0  0  0  0  0  0  0  0  0  0
    9.9170    4.2928    9.7393 H   0  0  0  0  0  0  0  0  0  0  0  0
    9.9658    3.0144    8.5492 H   0  0  0  0  0  0  0  0  0  0  0  0
    9.1063    6.5710    7.4214 H   0  0  0  0  0  0  0  0  0  0  0  0
   10.7992    6.9989    7.4842 H   0  0  0  0  0  0  0  0  0  0  0  0
    9.9342    6.6375    8.9587 H   0  0  0  0  0  0  0  0  0  0  0  0
   11.9277   -4.6407    1.7752 H   0  0  0  0  0  0  0  0  0  0  0  0
   10.5251   -5.5531    2.3169 H   0  0  0  0  0  0  0  0  0  0  0  0
   11.3188   -5.3188    4.6433 H   0  0  0  0  0  0  0  0  0  0  0  0
   13.0286   -4.6111    6.3306 H   0  0  0  0  0  0  0  0  0  0  0  0
   14.5686   -3.9643    5.7195 H   0  0  0  0  0  0  0  0  0  0  0  0
   13.7241   -3.2666    2.3895 H   0  0  0  0  0  0  0  0  0  0  0  0
   14.4784   -4.8013    2.7483 H   0  0  0  0  0  0  0  0  0  0  0  0
   14.9647   -3.3649    3.6162 H   0  0  0  0  0  0  0  0  0  0  0  0
   14.7658   -6.2928    6.3939 H   0  0  0  0  0  0  0  0  0  0  0  0
   15.0655   -6.0454    4.6736 H   0  0  0  0  0  0  0  0  0  0  0  0
   12.5283   -7.0521    5.8861 H   0  0  0  0  0  0  0  0  0  0  0  0
   13.1135   -6.4287    1.7330 H   0  0  0  0  0  0  0  0  0  0  0  0
   13.2043   -8.0949    2.2512 H   0  0  0  0  0  0  0  0  0  0  0  0
   14.4092   -6.9472    2.7843 H   0  0  0  0  0  0  0  0  0  0  0  0
   10.5246   -7.3566    4.3721 H   0  0  0  0  0  0  0  0  0  0  0  0
   11.5848   -8.6873    3.9746 H   0  0  0  0  0  0  0  0  0  0  0  0
   10.8982   -7.7069    2.7017 H   0  0  0  0  0  0  0  0  0  0  0  0
   16.0726  -10.0108    6.4370 H   0  0  0  0  0  0  0  0  0  0  0  0
   15.4001  -10.1326    4.8288 H   0  0  0  0  0  0  0  0  0  0  0  0
   14.6803  -11.0257    6.1468 H   0  0  0  0  0  0  0  0  0  0  0  0
  1  2  2  0  0  0  0
  2  3  1  0  0  0  0
  2  4  1  0  0  0  0
  4  5  1  0  0  0  0
  4  6  1  0  0  0  0
  4 37  1  0  0  0  0
  5  7  1  0  0  0  0
  5  8  1  0  0  0  0
  5 38  1  0  0  0  0
  6  9  1  0  0  0  0
  6 39  1  0  0  0  0
  6 40  1  0  0  0  0
  7 10  1  0  0  0  0
  7 11  1  0  0  0  0
  7 12  1  0  0  0  0
  8 13  1  0  0  0  0
  8 41  1  0  0  0  0
  8 42  1  0  0  0  0
  9 14  1  0  0  0  0
  9 43  1  0  0  0  0
  9 44  1  0  0  0  0
 10 15  1  0  0  0  0
 10 16  1  0  0  0  0
 10 13  1  0  0  0  0
 11 17  1  0  0  0  0
 11 45  1  0  0  0  0
 11 46  1  0  0  0  0
 12 47  1  0  0  0  0
 12 48  1  0  0  0  0
 12 49  1  0  0  0  0
 13 50  1  0  0  0  0
 13 51  1  0  0  0  0
 14 18  2  0  0  0  0
 14 52  1  0  0  0  0
 15 19  2  0  0  0  0
 15 20  1  0  0  0  0
 16 53  1  0  0  0  0
 16 54  1  0  0  0  0
 16 55  1  0  0  0  0
 17 19  1  0  0  0  0
 17 56  1  0  0  0  0
 17 57  1  0  0  0  0
 18 21  1  0  0  0  0
 18 22  1  0  0  0  0
 19 23  1  0  0  0  0
 20 24  1  0  0  0  0
 20 58  1  0  0  0  0
 20 59  1  0  0  0  0
 21 60  1  0  0  0  0
 21 61  1  0  0  0  0
 21 62  1  0  0  0  0
 22 63  1  0  0  0  0
 22 64  1  0  0  0  0
 22 65  1  0  0  0  0
 23 25  1  0  0  0  0
 23 26  1  0  0  0  0
 23 27  1  0  0  0  0
 24 25  1  0  0  0  0
 24 66  1  0  0  0  0
 24 67  1  0  0  0  0
 25 28  1  0  0  0  0
 25 68  1  0  0  0  0
 26 29  1  0  0  0  0
 26 69  1  0  0  0  0
 26 70  1  0  0  0  0
 27 71  1  0  0  0  0
 27 72  1  0  0  0  0
 27 73  1  0  0  0  0
 28 30  1  0  0  0  0
 28 31  1  0  0  0  0
 28 32  1  0  0  0  0
 29 30  1  0  0  0  0
 29 74  1  0  0  0  0
 29 75  1  0  0  0  0
 30 33  1  0  0  0  0
 30 76  1  0  0  0  0
 31 77  1  0  0  0  0
 31 78  1  0  0  0  0
 31 79  1  0  0  0  0
 32 80  1  0  0  0  0
 32 81  1  0  0  0  0
 32 82  1  0  0  0  0
 33 34  1  0  0  0  0
 34 35  2  0  0  0  0
 34 36  1  0  0  0  0
 36 83  1  0  0  0  0
 36 84  1  0  0  0  0
 36 85  1  0  0  0  0
M  CHG  1   3  -1
M  END
>  <Code-name>
121

>  <Compound>
lanostanoids 5

>  <Specie>
Inonotus obliquus.

>  <Reference>
GrÃ¼ndemann (2020)

>  <Organism>
Cytotoxic Activity

>  <Smiles>
C[C@@](CC1)([C@](C)(CC2)[C@H]1[C@H](CCC=C(C)C)C(O)=O)C(CC1)=C2[C@@](C)(CC2)[C@@H]1C(C)(C)[C@H]2OC(C)=O

>  <MMFF94 Energy>
85.06

>  <Total Molweight>
498.745

>  <Molweight>
498.745

>  <Monoisotopic Mass>
498.370910

>  <cLogP>
7.6299

>  <cLogS>
-6.338

>  <H-Acceptors>
4

>  <H-Donors>
1

>  <Total Surface Area>
386.3

>  <Relative PSA>
0.12731

>  <Polar Surface Area>
63.6

>  <Druglikeness>
-2.9653

>  <Mutagenic>
none

>  <Tumorigenic>
none

>  <Reproductive Effective>
high

>  <Irritant>
none

>  <Nasty Functions>


>  <Shape Index>
0.5

>  <Molecular Flexibility>
0.30322

>  <Molecular Complexity>
1.0137

>  <Fragments>
1

>  <Non-H Atoms>
36

>  <Non-C/H Atoms>
4

>  <Metal-Atoms>
0

>  <Electronegative Atoms>
4

>  <Stereo Centers>
7

>  <Rotatable Bonds>
7

>  <Rings Closures>
4

>  <Small Rings>
4

>  <Aromatic Rings>
0

>  <Aromatic Atoms>
0

>  <sp3-Atoms>
28

>  <Symmetric atoms>
2

>  <Amides>
0

>  <Amines>
0

>  <Alkyl-Amines>
0

>  <Aromatic Amines>
0

>  <Aromatic Nitrogens>
0

>  <Basic Nitrogens>
0

>  <Acidic Oxygens>
1

>  <Stereo Configuration>
this enantiomer

> <Gold.Version>
5.8.1

> <Gold.Id.Protein>
ID_2|Prot_COX2_5IKQ_Alig|mol2

> <Gold.Goldscore.Fitness>
-104.5258

> <Gold.Goldscore.Internal.Vdw>
-30.8254

> <Gold.Goldscore.Internal.Torsion>
-8.7719

> <Gold.Goldscore.External.Vdw>
-70.4588

> <Gold.Goldscore.Internal.HBond>
0.0000

> <Gold.Goldscore.External.HBond>
0.1968

> <Gold.Goldscore.Internal.Correction>
-31.7555

> <Gold.Goldscore.Hbonds>
donor molecule, donor type, donor heavy atom, donor atom, acceptor molecule, acceptor atom, score
      P1  H  8031  8036       L1     1  0.03

> <Gold.Goldscore.Internal.Vdw.Weighted>
-30.8254

> <Gold.Goldscore.Internal.Torsion.Weighted>
-8.7719

> <Gold.Goldscore.External.Vdw.Weighted>
-96.8809

> <Gold.Goldscore.Internal.HBond.Weighted>
0.0000

> <Gold.Goldscore.External.HBond.Weighted>
0.1968

> <Gold.Goldscore.Internal.Correction.Weighted>
-31.7555

> <Gold.Protein.RotatedTorsions>
[ 5077 5068 5067 5065 ] final  169.71 input  179.94 | X-H torsion
[ 5157 5152 5151 5148 ] final   88.43 input -179.92 | X-H torsion
[ 5185 5176 5175 5173 ] final  168.97 input -179.99 | X-H torsion
[ 5712 5703 5702 5700 ] final   80.56 input  180.00 | X-H torsion
[ 8036 8031 8030 8027 ] final -121.50 input -179.94 | X-H torsion
[ 2749 2745 2743 2740 ] final   42.71 input  -60.05 | X-H torsion
[ 1366 1361 1360 1357 ] final -128.96 input  -60.09 | X-H torsion
[ 2556 2551 2550 2547 ] final   64.45 input   59.97 | X-H torsion

> <Gold.Protein.ActiveResidues>
 PRO86   VAL89   HIS90   LEU93   THR94   ILE112  MET113  TYR115  VAL116  LEU117 
 THR118  SER119  ARG120  SER121  LEU123  ILE124  GLN192  SER194  PHE198  PHE201 
 ALA202  GLN203  PHE205  THR206  PHE209  PHE210  VAL228  ILE341  ILE343  VAL344 
 ILE345  GLU346  ASP347  TYR348  VAL349  GLN350  HIS351  LEU352  SER353  GLY354 
 TYR355  PHE357  LEU359  LYS360  GLU380  PHE381  ASN382  THR383  LEU384  TYR385 
 HIS386  TRP387  LEU390  VAL434  LEU507  ARG513  ALA516  ILE517  PHE518  GLY519 
 GLU520  THR521  MET522  VAL523  GLU524  VAL525  GLY526  ALA527  PRO528  PHE529 
 SER530  LEU531  LYS532  GLY533  LEU534  MET535  COH609 

> <Gold.Protein.RotatedAtoms>
   18.5749    7.2111    3.3544 H   0  0  0  0  0  0  0  0  0  0  0  0  # atno 1366 bound_to 1361
    5.1660  -10.1903    7.3600 H   0  0  0  0  0  0  0  0  0  0  0  0  # atno 2556 bound_to 2551
   -4.1421    0.2845    0.3847 H   0  0  0  0  0  0  0  0  0  0  0  0  # atno 2749 bound_to 2745
    1.8264   -1.4835    3.6805 H   0  0  0  0  0  0  0  0  0  0  0  0  # atno 5077 bound_to 5068
   12.8884   -2.3897    9.1640 H   0  0  0  0  0  0  0  0  0  0  0  0  # atno 5157 bound_to 5152
   15.4552    0.3251    5.0258 H   0  0  0  0  0  0  0  0  0  0  0  0  # atno 5185 bound_to 5176
    2.8387   -0.8852    2.5180 H   0  0  0  0  0  0  0  0  0  0  0  0  # atno 5712 bound_to 5703
    6.2447    4.3280    3.7089 H   0  0  0  0  0  0  0  0  0  0  0  0  # atno 8036 bound_to 8031
    0.4830   -1.9733    4.1461 LP  0  0  0  0  0  0  0  0  0  0  0  0  # atno 8267 bound_to 5068
    1.8143   -2.9189    4.1286 LP  0  0  0  0  0  0  0  0  0  0  0  0  # atno 8268 bound_to 5068
   11.4306   -2.7256    9.3281 LP  0  0  0  0  0  0  0  0  0  0  0  0  # atno 8279 bound_to 5152
   11.9883   -1.1911    9.2992 LP  0  0  0  0  0  0  0  0  0  0  0  0  # atno 8280 bound_to 5152
   15.3341   -1.0970    4.5550 LP  0  0  0  0  0  0  0  0  0  0  0  0  # atno 8281 bound_to 5176
   16.7635   -0.4098    4.9438 LP  0  0  0  0  0  0  0  0  0  0  0  0  # atno 8282 bound_to 5176
    1.4358   -0.5341    2.9269 LP  0  0  0  0  0  0  0  0  0  0  0  0  # atno 8283 bound_to 5703
    2.5287    0.5841    2.4558 LP  0  0  0  0  0  0  0  0  0  0  0  0  # atno 8284 bound_to 5703
    4.9140    3.7614    3.2987 LP  0  0  0  0  0  0  0  0  0  0  0  0  # atno 8309 bound_to 8031
    5.2055    5.3657    3.3877 LP  0  0  0  0  0  0  0  0  0  0  0  0  # atno 8310 bound_to 8031
   -3.3487   -0.3699    1.4826 LP  0  0  0  0  0  0  0  0  0  0  0  0  # atno 8323 bound_to 2745
   -2.9015   -0.4237   -0.0870 LP  0  0  0  0  0  0  0  0  0  0  0  0  # atno 8324 bound_to 2745
   18.4908    6.5494    2.0056 LP  0  0  0  0  0  0  0  0  0  0  0  0  # atno 8335 bound_to 1361
   17.4869    7.7520    2.4668 LP  0  0  0  0  0  0  0  0  0  0  0  0  # atno 8336 bound_to 1361
    4.7937   -8.9844    8.1793 LP  0  0  0  0  0  0  0  0  0  0  0  0  # atno 8342 bound_to 2551
    4.5565   -9.0670    6.5658 LP  0  0  0  0  0  0  0  0  0  0  0  0  # atno 8343 bound_to 2551

