
125|LMW3_p|sdf|125|dock1
  -GOLD-   6 922 5163D 1   1.00000     0.00000

 84 88  0  0  0  0  0  0  0  0  1 V2000
   15.4263    2.9454    6.2836 O   0  0  0  0  0  0  0  0  0  0  0  0
   15.9569    2.1287    5.5328 C   0  0  0  0  0  0  0  0  0  0  0  0
   15.1900    1.4650    4.4396 C   0  0  0  0  0  0  0  0  0  0  0  0
   17.3843    1.7245    5.7423 C   0  0  0  0  0  0  0  0  0  0  0  0
   15.8501    0.7757    3.4686 C   0  0  0  0  0  0  0  0  0  0  0  0
   13.6646    1.5844    4.4489 C   0  0  1  0  0  0  0  0  0  0  0  0
   18.1515    1.6044    4.4272 C   0  0  1  0  0  0  0  0  0  0  0  0
   17.4041    0.6328    3.4299 C   0  0  2  0  0  0  0  0  0  0  0  0
   15.0481    0.0064    2.3979 C   0  0  2  0  0  0  0  0  0  0  0  0
   13.0542    0.2066    3.9845 C   0  0  2  0  0  0  0  0  0  0  0  0
   12.8923    1.7714    5.7832 C   0  0  1  0  0  0  0  0  0  0  0  0
   13.3562    2.7969    3.5212 C   0  0  0  0  0  0  0  0  0  0  0  0
   18.6317    2.9591    3.7778 C   0  0  0  0  0  0  0  0  0  0  0  0
   17.9774    0.8319    1.9948 C   0  0  0  0  0  0  0  0  0  0  0  0
   17.7312   -0.8223    3.8781 C   0  0  0  0  0  0  0  0  0  0  0  0
   15.3157    0.5611    1.1162 O   0  0  0  0  0  0  0  0  0  0  0  0
   13.5082   -0.0461    2.5476 C   0  0  0  0  0  0  0  0  0  0  0  0
   11.5201    0.3313    4.2822 C   0  0  1  0  0  0  0  0  0  0  0  0
   13.5394   -1.0116    4.8488 C   0  0  0  0  0  0  0  0  0  0  0  0
   12.8700    3.1060    6.2710 O   0  0  0  0  0  0  0  0  0  0  0  0
   11.4514    1.3687    5.4331 C   0  0  0  0  0  0  0  0  0  0  0  0
   19.6576    2.6094    2.6422 C   0  0  1  0  0  0  0  0  0  0  0  0
   19.3978    3.8231    4.8144 C   0  0  0  0  0  0  0  0  0  0  0  0
   17.4703    3.8444    3.2698 C   0  0  0  0  0  0  0  0  0  0  0  0
   19.4432    1.2423    1.9852 C   0  0  0  0  0  0  0  0  0  0  0  0
   10.5583    0.6548    3.1124 C   0  0  2  0  0  0  0  0  0  0  0  0
   19.6711    3.6002    1.6166 O   0  0  0  0  0  0  0  0  0  0  0  0
    9.0733    0.8091    3.5138 C   0  0  2  0  0  0  0  0  0  0  0  0
   10.5231   -0.4377    2.0210 C   0  0  0  0  0  0  0  0  0  0  0  0
    8.7111   -0.1787    4.4634 O   0  0  0  0  0  0  0  0  0  0  0  0
    8.3376    0.6259    2.1783 C   0  0  1  0  0  0  0  0  0  0  0  0
    9.0716   -0.5582    1.5468 C   0  0  0  0  0  0  0  0  0  0  0  0
    6.7941    0.5191    2.2212 C   0  0  0  0  0  0  0  0  0  0  0  0
    6.4493   -0.7970    2.6745 O   0  0  0  0  0  0  0  0  0  0  0  0
    6.2262    1.5271    3.2342 C   0  0  0  0  0  0  0  0  0  0  0  0
    6.0688    0.7313    0.8876 C   0  0  0  0  0  0  0  0  0  0  0  0
   17.4042    0.7775    6.2400 H   0  0  0  0  0  0  0  0  0  0  0  0
   17.8570    2.4843    6.3289 H   0  0  0  0  0  0  0  0  0  0  0  0
   19.0882    1.1539    4.6812 H   0  0  0  0  0  0  0  0  0  0  0  0
   15.3861   -1.0004    2.5285 H   0  0  0  0  0  0  0  0  0  0  0  0
   13.3638    1.1960    6.5522 H   0  0  0  0  0  0  0  0  0  0  0  0
   13.8355    3.6722    3.9070 H   0  0  0  0  0  0  0  0  0  0  0  0
   12.2989    2.9568    3.4829 H   0  0  0  0  0  0  0  0  0  0  0  0
   13.7222    2.5946    2.5363 H   0  0  0  0  0  0  0  0  0  0  0  0
   17.4081    1.5933    1.5039 H   0  0  0  0  0  0  0  0  0  0  0  0
   17.9081   -0.1099    1.4915 H   0  0  0  0  0  0  0  0  0  0  0  0
   18.7830   -0.9961    3.7857 H   0  0  0  0  0  0  0  0  0  0  0  0
   17.1996   -1.5142    3.2588 H   0  0  0  0  0  0  0  0  0  0  0  0
   17.4358   -0.9564    4.8977 H   0  0  0  0  0  0  0  0  0  0  0  0
   15.3375   -0.1483    0.4551 H   0  0  0  0  0  0  0  0  0  0  0  0
   13.1662   -1.0135    2.2441 H   0  0  0  0  0  0  0  0  0  0  0  0
   13.0940    0.7263    1.9338 H   0  0  0  0  0  0  0  0  0  0  0  0
   11.1399   -0.6379    4.5290 H   0  0  0  0  0  0  0  0  0  0  0  0
   13.0441   -1.9015    4.5206 H   0  0  0  0  0  0  0  0  0  0  0  0
   13.3078   -0.8334    5.8781 H   0  0  0  0  0  0  0  0  0  0  0  0
   14.5969   -1.1299    4.7366 H   0  0  0  0  0  0  0  0  0  0  0  0
   12.4129    3.1301    7.1262 H   0  0  0  0  0  0  0  0  0  0  0  0
   10.8991    2.2286    5.1165 H   0  0  0  0  0  0  0  0  0  0  0  0
   10.9605    0.9504    6.2869 H   0  0  0  0  0  0  0  0  0  0  0  0
   20.5981    2.5794    3.1517 H   0  0  0  0  0  0  0  0  0  0  0  0
   18.6986    4.2868    5.4785 H   0  0  0  0  0  0  0  0  0  0  0  0
   19.9596    4.5775    4.3043 H   0  0  0  0  0  0  0  0  0  0  0  0
   20.0635    3.2007    5.3751 H   0  0  0  0  0  0  0  0  0  0  0  0
   16.5994    3.6667    3.8655 H   0  0  0  0  0  0  0  0  0  0  0  0
   17.2590    3.6042    2.2487 H   0  0  0  0  0  0  0  0  0  0  0  0
   17.7488    4.8749    3.3435 H   0  0  0  0  0  0  0  0  0  0  0  0
   19.7829    1.2884    0.9716 H   0  0  0  0  0  0  0  0  0  0  0  0
   19.9948    0.5154    2.5440 H   0  0  0  0  0  0  0  0  0  0  0  0
   10.9685    1.5793    2.7632 H   0  0  0  0  0  0  0  0  0  0  0  0
   19.9510    4.4499    1.9915 H   0  0  0  0  0  0  0  0  0  0  0  0
    8.8428    1.7432    3.9821 H   0  0  0  0  0  0  0  0  0  0  0  0
   10.8553   -1.3708    2.4256 H   0  0  0  0  0  0  0  0  0  0  0  0
   11.1685   -0.1819    1.2068 H   0  0  0  0  0  0  0  0  0  0  0  0
    8.8594   -1.0599    4.0860 H   0  0  0  0  0  0  0  0  0  0  0  0
    8.3847    1.5143    1.5836 H   0  0  0  0  0  0  0  0  0  0  0  0
    8.6453   -1.4821    1.8776 H   0  0  0  0  0  0  0  0  0  0  0  0
    8.9997   -0.5470    0.4793 H   0  0  0  0  0  0  0  0  0  0  0  0
    5.4843   -0.8761    2.7339 H   0  0  0  0  0  0  0  0  0  0  0  0
    6.5940    2.5060    3.0078 H   0  0  0  0  0  0  0  0  0  0  0  0
    6.5318    1.2509    4.2218 H   0  0  0  0  0  0  0  0  0  0  0  0
    5.1577    1.5257    3.1780 H   0  0  0  0  0  0  0  0  0  0  0  0
    6.3696   -0.0256    0.1937 H   0  0  0  0  0  0  0  0  0  0  0  0
    6.3188    1.6947    0.4950 H   0  0  0  0  0  0  0  0  0  0  0  0
    5.0119    0.6729    1.0432 H   0  0  0  0  0  0  0  0  0  0  0  0
  1  2  2  0  0  0  0
  2  3  1  0  0  0  0
  2  4  1  0  0  0  0
  3  5  2  0  0  0  0
  3  6  1  0  0  0  0
  4  7  1  0  0  0  0
  4 37  1  0  0  0  0
  4 38  1  0  0  0  0
  5  8  1  0  0  0  0
  5  9  1  0  0  0  0
  6 10  1  0  0  0  0
  6 11  1  0  0  0  0
  6 12  1  0  0  0  0
  7 13  1  0  0  0  0
  7  8  1  0  0  0  0
  7 39  1  0  0  0  0
  8 14  1  0  0  0  0
  8 15  1  0  0  0  0
  9 16  1  0  0  0  0
  9 17  1  0  0  0  0
  9 40  1  0  0  0  0
 10 18  1  0  0  0  0
 10 19  1  0  0  0  0
 10 17  1  0  0  0  0
 11 20  1  0  0  0  0
 11 21  1  0  0  0  0
 11 41  1  0  0  0  0
 12 42  1  0  0  0  0
 12 43  1  0  0  0  0
 12 44  1  0  0  0  0
 13 22  1  0  0  0  0
 13 23  1  0  0  0  0
 13 24  1  0  0  0  0
 14 25  1  0  0  0  0
 14 45  1  0  0  0  0
 14 46  1  0  0  0  0
 15 47  1  0  0  0  0
 15 48  1  0  0  0  0
 15 49  1  0  0  0  0
 16 50  1  0  0  0  0
 17 51  1  0  0  0  0
 17 52  1  0  0  0  0
 18 26  1  0  0  0  0
 18 21  1  0  0  0  0
 18 53  1  0  0  0  0
 19 54  1  0  0  0  0
 19 55  1  0  0  0  0
 19 56  1  0  0  0  0
 20 57  1  0  0  0  0
 21 58  1  0  0  0  0
 21 59  1  0  0  0  0
 22 27  1  0  0  0  0
 22 25  1  0  0  0  0
 22 60  1  0  0  0  0
 23 61  1  0  0  0  0
 23 62  1  0  0  0  0
 23 63  1  0  0  0  0
 24 64  1  0  0  0  0
 24 65  1  0  0  0  0
 24 66  1  0  0  0  0
 25 67  1  0  0  0  0
 25 68  1  0  0  0  0
 26 28  1  0  0  0  0
 26 29  1  0  0  0  0
 26 69  1  0  0  0  0
 27 70  1  0  0  0  0
 28 30  1  0  0  0  0
 28 31  1  0  0  0  0
 28 71  1  0  0  0  0
 29 32  1  0  0  0  0
 29 72  1  0  0  0  0
 29 73  1  0  0  0  0
 30 74  1  0  0  0  0
 31 33  1  0  0  0  0
 31 32  1  0  0  0  0
 31 75  1  0  0  0  0
 32 76  1  0  0  0  0
 32 77  1  0  0  0  0
 33 34  1  0  0  0  0
 33 35  1  0  0  0  0
 33 36  1  0  0  0  0
 34 78  1  0  0  0  0
 35 79  1  0  0  0  0
 35 80  1  0  0  0  0
 35 81  1  0  0  0  0
 36 82  1  0  0  0  0
 36 83  1  0  0  0  0
 36 84  1  0  0  0  0
M  END
>  <Code-name>
125

>  <Compound>
Inonotusol B

>  <Specie>
Inonotus obliquus

>  <Reference>
GrÃ¼ndemann (2020)

>  <Organism>
Antitumoral Activity

>  <Smiles>
CC(C)([C@H](CC[C@@H]1[C@H](C[C@@H]2O)[C@@](C)(C[C@H]3O)[C@]2(C)C(C(C2)=O)=C3[C@@](C)(CC3)[C@H]2C(C)(C)[C@@H]3O)[C@H]1O)O

>  <MMFF94 Energy>
152.43

>  <Total Molweight>
504.705

>  <Molweight>
504.705

>  <Monoisotopic Mass>
504.345090

>  <cLogP>
3.397

>  <cLogS>
-4.698

>  <H-Acceptors>
6

>  <H-Donors>
5

>  <Total Surface Area>
352.61

>  <Relative PSA>
0.22274

>  <Polar Surface Area>
118.22

>  <Druglikeness>
-1.285

>  <Mutagenic>
none

>  <Tumorigenic>
none

>  <Reproductive Effective>
none

>  <Irritant>
none

>  <Nasty Functions>


>  <Shape Index>
0.41667

>  <Molecular Flexibility>
0.18333

>  <Molecular Complexity>
1.0469

>  <Fragments>
1

>  <Non-H Atoms>
36

>  <Non-C/H Atoms>
6

>  <Metal-Atoms>
0

>  <Electronegative Atoms>
6

>  <Stereo Centers>
11

>  <Rotatable Bonds>
2

>  <Rings Closures>
5

>  <Small Rings>
5

>  <Aromatic Rings>
0

>  <Aromatic Atoms>
0

>  <sp3-Atoms>
32

>  <Symmetric atoms>
2

>  <Amides>
0

>  <Amines>
0

>  <Alkyl-Amines>
0

>  <Aromatic Amines>
0

>  <Aromatic Nitrogens>
0

>  <Basic Nitrogens>
0

>  <Acidic Oxygens>
0

>  <Stereo Configuration>
this enantiomer

> <Gold.Version>
5.8.1

> <Gold.Id.Protein>
ID_2|Prot_COX2_5IKQ_Alig|mol2

> <Gold.Goldscore.Fitness>
-68.0209

> <Gold.Goldscore.Internal.Vdw>
-31.9398

> <Gold.Goldscore.Internal.Torsion>
-5.0638

> <Gold.Goldscore.External.Vdw>
-44.3355

> <Gold.Goldscore.Internal.HBond>
0.0000

> <Gold.Goldscore.External.HBond>
0.3738

> <Gold.Goldscore.Internal.Correction>
-29.5701

> <Gold.Goldscore.Hbonds>
donor molecule, donor type, donor heavy atom, donor atom, acceptor molecule, acceptor atom, score
      P1  H  1377  1389       L1     1  0.01
      P1  H  1377  1390       L1    16  0.01
      L1  H    16    50       P1  7952  0.02
      L1  H    34    78       P1  5703  0.05

> <Gold.Goldscore.Internal.Vdw.Weighted>
-31.9398

> <Gold.Goldscore.Internal.Torsion.Weighted>
-5.0638

> <Gold.Goldscore.External.Vdw.Weighted>
-60.9613

> <Gold.Goldscore.Internal.HBond.Weighted>
0.0000

> <Gold.Goldscore.External.HBond.Weighted>
0.3738

> <Gold.Goldscore.Internal.Correction.Weighted>
-29.5701

> <Gold.Protein.RotatedTorsions>
[ 5077 5068 5067 5065 ] final  -53.46 input  179.94 | X-H torsion
[ 5157 5152 5151 5148 ] final -167.44 input -179.92 | X-H torsion
[ 5185 5176 5175 5173 ] final   30.04 input -179.99 | X-H torsion
[ 5712 5703 5702 5700 ] final -174.95 input  180.00 | X-H torsion
[ 8036 8031 8030 8027 ] final  -93.03 input -179.94 | X-H torsion
[ 2749 2745 2743 2740 ] final   25.57 input  -60.05 | X-H torsion
[ 1366 1361 1360 1357 ] final -143.54 input  -60.09 | X-H torsion
[ 2556 2551 2550 2547 ] final  -24.88 input   59.97 | X-H torsion

> <Gold.Protein.ActiveResidues>
 PRO86   VAL89   HIS90   LEU93   THR94   ILE112  MET113  TYR115  VAL116  LEU117 
 THR118  SER119  ARG120  SER121  LEU123  ILE124  GLN192  SER194  PHE198  PHE201 
 ALA202  GLN203  PHE205  THR206  PHE209  PHE210  VAL228  ILE341  ILE343  VAL344 
 ILE345  GLU346  ASP347  TYR348  VAL349  GLN350  HIS351  LEU352  SER353  GLY354 
 TYR355  PHE357  LEU359  LYS360  GLU380  PHE381  ASN382  THR383  LEU384  TYR385 
 HIS386  TRP387  LEU390  VAL434  LEU507  ARG513  ALA516  ILE517  PHE518  GLY519 
 GLU520  THR521  MET522  VAL523  GLU524  VAL525  GLY526  ALA527  PRO528  PHE529 
 SER530  LEU531  LYS532  GLY533  LEU534  MET535  COH609 

> <Gold.Protein.RotatedAtoms>
   18.6859    7.0640    3.2753 H   0  0  0  0  0  0  0  0  0  0  0  0  # atno 1366 bound_to 1361
    4.9526   -9.4417    8.1529 H   0  0  0  0  0  0  0  0  0  0  0  0  # atno 2556 bound_to 2551
   -4.1770    0.2743    0.6173 H   0  0  0  0  0  0  0  0  0  0  0  0  # atno 2749 bound_to 2745
    1.5455   -2.8217    4.2146 H   0  0  0  0  0  0  0  0  0  0  0  0  # atno 5077 bound_to 5068
   12.2295   -1.3330    9.2327 H   0  0  0  0  0  0  0  0  0  0  0  0  # atno 5157 bound_to 5152
   15.6465   -1.0878    4.6452 H   0  0  0  0  0  0  0  0  0  0  0  0  # atno 5185 bound_to 5176
    2.6705    0.3439    2.4002 H   0  0  0  0  0  0  0  0  0  0  0  0  # atno 5712 bound_to 5703
    6.2233    4.7150    3.6986 H   0  0  0  0  0  0  0  0  0  0  0  0  # atno 8036 bound_to 8031
    2.0975   -1.5699    3.5903 LP  0  0  0  0  0  0  0  0  0  0  0  0  # atno 8267 bound_to 5068
    0.5363   -1.7198    4.0449 LP  0  0  0  0  0  0  0  0  0  0  0  0  # atno 8268 bound_to 5068
   12.9127   -2.6736    9.2029 LP  0  0  0  0  0  0  0  0  0  0  0  0  # atno 8279 bound_to 5152
   11.2942   -2.5069    9.3423 LP  0  0  0  0  0  0  0  0  0  0  0  0  # atno 8280 bound_to 5152
   16.7229   -0.1100    5.0245 LP  0  0  0  0  0  0  0  0  0  0  0  0  # atno 8281 bound_to 5176
   15.1450    0.2998    4.9312 LP  0  0  0  0  0  0  0  0  0  0  0  0  # atno 8282 bound_to 5176
    2.7646   -1.1397    2.6210 LP  0  0  0  0  0  0  0  0  0  0  0  0  # atno 8283 bound_to 5703
    1.4018   -0.2854    2.9031 LP  0  0  0  0  0  0  0  0  0  0  0  0  # atno 8284 bound_to 5703
    5.3056    3.5536    3.4359 LP  0  0  0  0  0  0  0  0  0  0  0  0  # atno 8309 bound_to 8031
    4.8395    5.1091    3.2629 LP  0  0  0  0  0  0  0  0  0  0  0  0  # atno 8310 bound_to 8031
   -3.1200   -0.4877    1.3691 LP  0  0  0  0  0  0  0  0  0  0  0  0  # atno 8323 bound_to 2745
   -3.0884   -0.2937   -0.2520 LP  0  0  0  0  0  0  0  0  0  0  0  0  # atno 8324 bound_to 2745
   18.3176    6.6519    1.8759 LP  0  0  0  0  0  0  0  0  0  0  0  0  # atno 8335 bound_to 1361
   17.5272    7.8255    2.6910 LP  0  0  0  0  0  0  0  0  0  0  0  0  # atno 8336 bound_to 1361
    4.4611   -8.7323    6.9203 LP  0  0  0  0  0  0  0  0  0  0  0  0  # atno 8342 bound_to 2551
    5.1446  -10.2147    6.8762 LP  0  0  0  0  0  0  0  0  0  0  0  0  # atno 8343 bound_to 2551

