
133|LMW3_p|sdf|133|dock2
  -GOLD-   6 922 5373D 1   1.00000     0.00000

 81 84  0  0  0  0  0  0  0  0  1 V2000
    8.5288    3.1089    4.7110 O   0  0  0  0  0  0  0  0  0  0  0  0
    9.5963    2.5390    4.4875 C   0  0  0  0  0  0  0  0  0  0  0  0
    9.6730    1.3361    3.5534 C   0  0  0  0  0  0  0  0  0  0  0  0
   10.8506    3.0684    5.1769 C   0  0  0  0  0  0  0  0  0  0  0  0
   10.8991    0.8128    3.2820 C   0  0  0  0  0  0  0  0  0  0  0  0
    8.3551    0.7282    2.9869 C   0  0  2  0  0  0  0  0  0  0  0  0
   11.9626    2.0241    5.2296 C   0  0  1  0  0  0  0  0  0  0  0  0
   12.1734    1.4911    3.7716 C   0  0  1  0  0  0  0  0  0  0  0  0
   11.0954   -0.4198    2.4295 C   0  0  0  0  0  0  0  0  0  0  0  0
    8.7100   -0.1271    1.7016 C   0  0  1  0  0  0  0  0  0  0  0  0
    7.3175    1.7968    2.5367 C   0  0  0  0  0  0  0  0  0  0  0  0
    7.7605   -0.0908    4.1561 C   0  0  0  0  0  0  0  0  0  0  0  0
   13.3917    2.5455    5.5832 C   0  0  1  0  0  0  0  0  0  0  0  0
   11.5468    0.9105    6.2422 C   0  0  0  0  0  0  0  0  0  0  0  0
   13.4533    0.6566    3.9559 C   0  0  0  0  0  0  0  0  0  0  0  0
   12.4936    2.5800    2.6998 C   0  0  0  0  0  0  0  0  0  0  0  0
    9.8131   -1.1422    2.0285 C   0  0  0  0  0  0  0  0  0  0  0  0
    7.5115   -0.7196    0.8710 C   0  0  0  0  0  0  0  0  0  0  0  0
    6.1109    1.2298    1.7917 C   0  0  0  0  0  0  0  0  0  0  0  0
   13.7664    2.8348    7.0666 C   0  0  1  0  0  0  0  0  0  0  0  0
   14.3113    1.4648    4.9452 C   0  0  0  0  0  0  0  0  0  0  0  0
    6.5144    0.4309    0.5611 C   0  0  2  0  0  0  0  0  0  0  0  0
    8.0338   -1.2437   -0.4981 C   0  0  0  0  0  0  0  0  0  0  0  0
    6.8133   -1.9208    1.5407 C   0  0  0  0  0  0  0  0  0  0  0  0
   15.2863    3.1335    7.2550 C   0  0  2  0  0  0  0  0  0  0  0  0
   12.9172    3.9611    7.6736 C   0  0  0  0  0  0  0  0  0  0  0  0
    5.3407   -0.0535   -0.0894 O   0  0  0  0  0  0  0  0  0  0  0  0
   16.0177    1.9316    6.9726 O   0  0  0  0  0  0  0  0  0  0  0  0
   15.6716    3.6164    8.6673 C   0  0  0  0  0  0  0  0  0  0  0  0
   15.0798    2.7427    9.7485 C   0  0  0  0  0  0  0  0  0  0  0  0
   15.6283    1.6562   10.3266 C   0  0  0  0  0  0  0  0  0  0  0  0
   17.0033    1.1226   10.0319 C   0  0  0  0  0  0  0  0  0  0  0  0
   14.8746    0.8790   11.3739 C   0  0  0  0  0  0  0  0  0  0  0  0
   10.5995    3.3554    6.1766 H   0  0  0  0  0  0  0  0  0  0  0  0
   11.2095    3.9028    4.6114 H   0  0  0  0  0  0  0  0  0  0  0  0
   11.7055   -1.1074    2.9770 H   0  0  0  0  0  0  0  0  0  0  0  0
   11.5440   -0.0828    1.5184 H   0  0  0  0  0  0  0  0  0  0  0  0
    9.0891    0.5814    0.9950 H   0  0  0  0  0  0  0  0  0  0  0  0
    7.8122    2.4929    1.8920 H   0  0  0  0  0  0  0  0  0  0  0  0
    6.9398    2.2507    3.4290 H   0  0  0  0  0  0  0  0  0  0  0  0
    6.8212    0.3317    4.4461 H   0  0  0  0  0  0  0  0  0  0  0  0
    8.4342   -0.0670    4.9871 H   0  0  0  0  0  0  0  0  0  0  0  0
    7.6148   -1.1039    3.8440 H   0  0  0  0  0  0  0  0  0  0  0  0
   13.4904    3.5430    5.2089 H   0  0  0  0  0  0  0  0  0  0  0  0
   10.7570    0.3234    5.8221 H   0  0  0  0  0  0  0  0  0  0  0  0
   11.2101    1.3628    7.1515 H   0  0  0  0  0  0  0  0  0  0  0  0
   12.3884    0.2821    6.4467 H   0  0  0  0  0  0  0  0  0  0  0  0
   13.9640    0.5390    3.0229 H   0  0  0  0  0  0  0  0  0  0  0  0
   13.2441   -0.3294    4.3149 H   0  0  0  0  0  0  0  0  0  0  0  0
   13.1650    3.3024    3.1148 H   0  0  0  0  0  0  0  0  0  0  0  0
   11.5873    3.0648    2.4022 H   0  0  0  0  0  0  0  0  0  0  0  0
   12.9478    2.1190    1.8477 H   0  0  0  0  0  0  0  0  0  0  0  0
    9.4913   -1.7650    2.8369 H   0  0  0  0  0  0  0  0  0  0  0  0
   10.0060   -1.7380    1.1610 H   0  0  0  0  0  0  0  0  0  0  0  0
    5.4839    2.0406    1.4850 H   0  0  0  0  0  0  0  0  0  0  0  0
    5.5971    0.5680    2.4572 H   0  0  0  0  0  0  0  0  0  0  0  0
   13.5465    1.9332    7.5992 H   0  0  0  0  0  0  0  0  0  0  0  0
   14.6989    0.8193    5.7054 H   0  0  0  0  0  0  0  0  0  0  0  0
   15.1384    1.9213    4.4427 H   0  0  0  0  0  0  0  0  0  0  0  0
    7.0439    1.0900   -0.0947 H   0  0  0  0  0  0  0  0  0  0  0  0
    8.8410   -0.6259   -0.8321 H   0  0  0  0  0  0  0  0  0  0  0  0
    7.2416   -1.2149   -1.2168 H   0  0  0  0  0  0  0  0  0  0  0  0
    8.3779   -2.2507   -0.3868 H   0  0  0  0  0  0  0  0  0  0  0  0
    6.2661   -2.4713    0.8042 H   0  0  0  0  0  0  0  0  0  0  0  0
    6.1410   -1.5677    2.2945 H   0  0  0  0  0  0  0  0  0  0  0  0
    7.5485   -2.5567    1.9880 H   0  0  0  0  0  0  0  0  0  0  0  0
   15.5261    3.9335    6.5860 H   0  0  0  0  0  0  0  0  0  0  0  0
   12.2673    4.3616    6.9238 H   0  0  0  0  0  0  0  0  0  0  0  0
   13.5596    4.7348    8.0391 H   0  0  0  0  0  0  0  0  0  0  0  0
   12.3328    3.5717    8.4810 H   0  0  0  0  0  0  0  0  0  0  0  0
    4.7470   -0.4494    0.5677 H   0  0  0  0  0  0  0  0  0  0  0  0
   16.9449    2.1521    6.7923 H   0  0  0  0  0  0  0  0  0  0  0  0
   15.3154    4.6168    8.7988 H   0  0  0  0  0  0  0  0  0  0  0  0
   16.7372    3.5689    8.7521 H   0  0  0  0  0  0  0  0  0  0  0  0
   14.1418    3.0106   10.0850 H   0  0  0  0  0  0  0  0  0  0  0  0
   16.9260    0.1205    9.6650 H   0  0  0  0  0  0  0  0  0  0  0  0
   17.5884    1.1303   10.9277 H   0  0  0  0  0  0  0  0  0  0  0  0
   17.4737    1.7376    9.2934 H   0  0  0  0  0  0  0  0  0  0  0  0
   13.9075    1.3148   11.5142 H   0  0  0  0  0  0  0  0  0  0  0  0
   15.4154    0.9066   12.2967 H   0  0  0  0  0  0  0  0  0  0  0  0
   14.7654   -0.1364   11.0547 H   0  0  0  0  0  0  0  0  0  0  0  0
  1  2  2  0  0  0  0
  2  3  1  0  0  0  0
  2  4  1  0  0  0  0
  3  5  2  0  0  0  0
  3  6  1  0  0  0  0
  4  7  1  0  0  0  0
  4 34  1  0  0  0  0
  4 35  1  0  0  0  0
  5  8  1  0  0  0  0
  5  9  1  0  0  0  0
  6 10  1  0  0  0  0
  6 11  1  0  0  0  0
  6 12  1  0  0  0  0
  7 13  1  0  0  0  0
  7 14  1  0  0  0  0
  7  8  1  0  0  0  0
  8 15  1  0  0  0  0
  8 16  1  0  0  0  0
  9 17  1  0  0  0  0
  9 36  1  0  0  0  0
  9 37  1  0  0  0  0
 10 18  1  0  0  0  0
 10 17  1  0  0  0  0
 10 38  1  0  0  0  0
 11 19  1  0  0  0  0
 11 39  1  0  0  0  0
 11 40  1  0  0  0  0
 12 41  1  0  0  0  0
 12 42  1  0  0  0  0
 12 43  1  0  0  0  0
 13 20  1  0  0  0  0
 13 21  1  0  0  0  0
 13 44  1  0  0  0  0
 14 45  1  0  0  0  0
 14 46  1  0  0  0  0
 14 47  1  0  0  0  0
 15 21  1  0  0  0  0
 15 48  1  0  0  0  0
 15 49  1  0  0  0  0
 16 50  1  0  0  0  0
 16 51  1  0  0  0  0
 16 52  1  0  0  0  0
 17 53  1  0  0  0  0
 17 54  1  0  0  0  0
 18 22  1  0  0  0  0
 18 23  1  0  0  0  0
 18 24  1  0  0  0  0
 19 22  1  0  0  0  0
 19 55  1  0  0  0  0
 19 56  1  0  0  0  0
 20 25  1  0  0  0  0
 20 26  1  0  0  0  0
 20 57  1  0  0  0  0
 21 58  1  0  0  0  0
 21 59  1  0  0  0  0
 22 27  1  0  0  0  0
 22 60  1  0  0  0  0
 23 61  1  0  0  0  0
 23 62  1  0  0  0  0
 23 63  1  0  0  0  0
 24 64  1  0  0  0  0
 24 65  1  0  0  0  0
 24 66  1  0  0  0  0
 25 28  1  0  0  0  0
 25 29  1  0  0  0  0
 25 67  1  0  0  0  0
 26 68  1  0  0  0  0
 26 69  1  0  0  0  0
 26 70  1  0  0  0  0
 27 71  1  0  0  0  0
 28 72  1  0  0  0  0
 29 30  1  0  0  0  0
 29 73  1  0  0  0  0
 29 74  1  0  0  0  0
 30 31  2  0  0  0  0
 30 75  1  0  0  0  0
 31 32  1  0  0  0  0
 31 33  1  0  0  0  0
 32 76  1  0  0  0  0
 32 77  1  0  0  0  0
 32 78  1  0  0  0  0
 33 79  1  0  0  0  0
 33 80  1  0  0  0  0
 33 81  1  0  0  0  0
M  END
>  <Code-name>
133

>  <Compound>
Inonotsuoxodiol A

>  <Specie>
Inonotus obliquus

>  <Reference>
GrÃ¼ndemann (2020)

>  <Organism>
Antitumoral Activity

>  <Smiles>
C[C@H]([C@@H](CC=C(C)C)O)[C@@H](CC1)[C@@](C)(C2)[C@]1(C)C(CC[C@@H](C1(C)C)[C@]3(C)CC[C@@H]1O)=C3C2=O

>  <MMFF94 Energy>
144.6

>  <Total Molweight>
456.708

>  <Molweight>
456.708

>  <Monoisotopic Mass>
456.360345

>  <cLogP>
6.6914

>  <cLogS>
-5.706

>  <H-Acceptors>
3

>  <H-Donors>
2

>  <Total Surface Area>
349.88

>  <Relative PSA>
0.11215

>  <Polar Surface Area>
57.53

>  <Druglikeness>
-0.23547

>  <Mutagenic>
none

>  <Tumorigenic>
none

>  <Reproductive Effective>
high

>  <Irritant>
none

>  <Nasty Functions>


>  <Shape Index>
0.48485

>  <Molecular Flexibility>
0.29521

>  <Molecular Complexity>
0.99474

>  <Fragments>
1

>  <Non-H Atoms>
33

>  <Non-C/H Atoms>
3

>  <Metal-Atoms>
0

>  <Electronegative Atoms>
3

>  <Stereo Centers>
8

>  <Rotatable Bonds>
4

>  <Rings Closures>
4

>  <Small Rings>
4

>  <Aromatic Rings>
0

>  <Aromatic Atoms>
0

>  <sp3-Atoms>
27

>  <Symmetric atoms>
2

>  <Amides>
0

>  <Amines>
0

>  <Alkyl-Amines>
0

>  <Aromatic Amines>
0

>  <Aromatic Nitrogens>
0

>  <Basic Nitrogens>
0

>  <Acidic Oxygens>
0

>  <Stereo Configuration>
this enantiomer

> <Gold.Version>
5.8.1

> <Gold.Id.Protein>
ID_2|Prot_COX2_5IKQ_Alig|mol2

> <Gold.Goldscore.Fitness>
0.0000

> <Gold.Goldscore.Internal.Vdw>
-37.2661

> <Gold.Goldscore.Internal.Torsion>
-11.9826

> <Gold.Goldscore.External.Vdw>
-1215.7161

> <Gold.Goldscore.Internal.HBond>
0.0000

> <Gold.Goldscore.External.HBond>
0.3524

> <Gold.Goldscore.Internal.Correction>
-33.2870

> <Gold.Goldscore.Hbonds>
donor molecule, donor type, donor heavy atom, donor atom, acceptor molecule, acceptor atom, score
      L1  H    27    71       P1  5703  0.05

> <Gold.Goldscore.Internal.Vdw.Weighted>
-37.2661

> <Gold.Goldscore.Internal.Torsion.Weighted>
-11.9826

> <Gold.Goldscore.External.Vdw.Weighted>
-1671.6097

> <Gold.Goldscore.Internal.HBond.Weighted>
0.0000

> <Gold.Goldscore.External.HBond.Weighted>
0.3524

> <Gold.Goldscore.Internal.Correction.Weighted>
-33.2870

> <Gold.Protein.RotatedTorsions>
[ 5077 5068 5067 5065 ] final -163.19 input  179.94 | X-H torsion
[ 5157 5152 5151 5148 ] final -158.83 input -179.92 | X-H torsion
[ 5185 5176 5175 5173 ] final   64.69 input -179.99 | X-H torsion
[ 5712 5703 5702 5700 ] final  108.28 input  180.00 | X-H torsion
[ 8036 8031 8030 8027 ] final  -77.29 input -179.94 | X-H torsion
[ 2749 2745 2743 2740 ] final  -16.45 input  -60.05 | X-H torsion
[ 1366 1361 1360 1357 ] final   -8.06 input  -60.09 | X-H torsion
[ 2556 2551 2550 2547 ] final -120.03 input   59.97 | X-H torsion

> <Gold.Protein.ActiveResidues>
 PRO86   VAL89   HIS90   LEU93   THR94   ILE112  MET113  TYR115  VAL116  LEU117 
 THR118  SER119  ARG120  SER121  LEU123  ILE124  GLN192  SER194  PHE198  PHE201 
 ALA202  GLN203  PHE205  THR206  PHE209  PHE210  VAL228  ILE341  ILE343  VAL344 
 ILE345  GLU346  ASP347  TYR348  VAL349  GLN350  HIS351  LEU352  SER353  GLY354 
 TYR355  PHE357  LEU359  LYS360  GLU380  PHE381  ASN382  THR383  LEU384  TYR385 
 HIS386  TRP387  LEU390  VAL434  LEU507  ARG513  ALA516  ILE517  PHE518  GLY519 
 GLU520  THR521  MET522  VAL523  GLU524  VAL525  GLY526  ALA527  PRO528  PHE529 
 SER530  LEU531  LYS532  GLY533  LEU534  MET535  COH609 

> <Gold.Protein.RotatedAtoms>
   17.6309    7.6822    2.4724 H   0  0  0  0  0  0  0  0  0  0  0  0  # atno 1366 bound_to 1361
    4.4937   -8.7615    7.3232 H   0  0  0  0  0  0  0  0  0  0  0  0  # atno 2556 bound_to 2551
   -4.0112    0.1105    1.1336 H   0  0  0  0  0  0  0  0  0  0  0  0  # atno 2749 bound_to 2745
    2.0738   -1.7568    3.7110 H   0  0  0  0  0  0  0  0  0  0  0  0  # atno 5077 bound_to 5068
   12.1113   -1.3297    9.2427 H   0  0  0  0  0  0  0  0  0  0  0  0  # atno 5157 bound_to 5152
   15.2448   -0.8456    4.6611 H   0  0  0  0  0  0  0  0  0  0  0  0  # atno 5185 bound_to 5176
    3.0217   -0.5694    2.4216 H   0  0  0  0  0  0  0  0  0  0  0  0  # atno 5712 bound_to 5703
    6.1356    4.9098    3.6668 H   0  0  0  0  0  0  0  0  0  0  0  0  # atno 8036 bound_to 8031
    0.6045   -1.5822    3.9798 LP  0  0  0  0  0  0  0  0  0  0  0  0  # atno 8267 bound_to 5068
    1.3966   -2.9828    4.2585 LP  0  0  0  0  0  0  0  0  0  0  0  0  # atno 8268 bound_to 5068
   12.9868   -2.5530    9.1980 LP  0  0  0  0  0  0  0  0  0  0  0  0  # atno 8279 bound_to 5152
   11.3615   -2.6314    9.3351 LP  0  0  0  0  0  0  0  0  0  0  0  0  # atno 8280 bound_to 5152
   16.7204   -0.6500    4.8689 LP  0  0  0  0  0  0  0  0  0  0  0  0  # atno 8281 bound_to 5176
   15.6298    0.5490    5.0677 LP  0  0  0  0  0  0  0  0  0  0  0  0  # atno 8282 bound_to 5176
    1.6503   -0.9318    2.9183 LP  0  0  0  0  0  0  0  0  0  0  0  0  # atno 8283 bound_to 5703
    2.0945    0.6028    2.5801 LP  0  0  0  0  0  0  0  0  0  0  0  0  # atno 8284 bound_to 5703
    5.5491    3.5334    3.5204 LP  0  0  0  0  0  0  0  0  0  0  0  0  # atno 8309 bound_to 8031
    4.7013    4.8956    3.2166 LP  0  0  0  0  0  0  0  0  0  0  0  0  # atno 8310 bound_to 8031
   -2.7415   -0.6364    0.8282 LP  0  0  0  0  0  0  0  0  0  0  0  0  # atno 8323 bound_to 2745
   -3.6655    0.0512   -0.3294 LP  0  0  0  0  0  0  0  0  0  0  0  0  # atno 8324 bound_to 2745
   18.6044    7.1943    3.5108 LP  0  0  0  0  0  0  0  0  0  0  0  0  # atno 8335 bound_to 1361
   18.5025    6.5435    2.0166 LP  0  0  0  0  0  0  0  0  0  0  0  0  # atno 8336 bound_to 1361
    4.9858   -9.9794    6.5892 LP  0  0  0  0  0  0  0  0  0  0  0  0  # atno 8342 bound_to 2551
    5.1687   -9.7814    8.1998 LP  0  0  0  0  0  0  0  0  0  0  0  0  # atno 8343 bound_to 2551

