
135|LMW3_p|sdf|135|dock1
  -GOLD-   6 92210 33D 1   1.00000     0.00000

 83 87  0  0  0  0  0  0  0  0  1 V2000
   17.5707    0.5789    1.1170 O   0  0  0  0  0  0  0  0  0  0  0  0
   18.0086   -0.4216    2.0388 C   0  0  0  0  0  0  0  0  0  0  0  0
   17.3295   -0.2090    3.4151 C   0  0  2  0  0  0  0  0  0  0  0  0
   19.5390   -0.3610    2.1403 C   0  0  0  0  0  0  0  0  0  0  0  0
   17.6116   -1.7784    1.4400 C   0  0  0  0  0  0  0  0  0  0  0  0
   15.7840   -0.0941    3.3463 C   0  0  1  0  0  0  0  0  0  0  0  0
   17.7829    1.0675    4.1501 C   0  0  0  0  0  0  0  0  0  0  0  0
   15.2282   -1.1079    4.1846 O   0  0  0  0  0  0  0  0  0  0  0  0
   15.4309    1.3007    3.8955 C   0  0  2  0  0  0  0  0  0  0  0  0
   16.5538    1.5405    4.9096 C   0  0  0  0  0  0  0  0  0  0  0  0
   14.0248    1.4695    4.5063 C   0  0  2  0  0  0  0  0  0  0  0  0
   12.7898    1.0308    3.6653 C   0  0  2  0  0  0  0  0  0  0  0  0
   13.7051    2.9568    4.8318 C   0  0  0  0  0  0  0  0  0  0  0  0
   11.6188    1.7538    4.4271 C   0  0  1  0  0  0  0  0  0  0  0  0
   12.4722   -0.4669    3.6379 C   0  0  0  0  0  0  0  0  0  0  0  0
   12.9659    1.5186    2.1915 C   0  0  0  0  0  0  0  0  0  0  0  0
   12.2033    3.1716    4.5605 C   0  0  0  0  0  0  0  0  0  0  0  0
   10.3018    1.5591    3.6821 C   0  0  0  0  0  0  0  0  0  0  0  0
   11.3464    1.2322    5.8726 C   0  0  0  0  0  0  0  0  0  0  0  0
   11.0869   -0.7456    3.0157 C   0  0  0  0  0  0  0  0  0  0  0  0
   10.0425    0.3772    3.0635 C   0  0  0  0  0  0  0  0  0  0  0  0
    9.3153    2.7017    3.7406 C   0  0  0  0  0  0  0  0  0  0  0  0
    8.6987    0.1237    2.3257 C   0  0  2  0  0  0  0  0  0  0  0  0
    8.0205    2.4967    2.9534 C   0  0  0  0  0  0  0  0  0  0  0  0
    7.5834    1.0233    2.9824 C   0  0  1  0  0  0  0  0  0  0  0  0
    8.2490   -1.3540    2.4496 C   0  0  0  0  0  0  0  0  0  0  0  0
    8.9835    0.4433    0.8384 C   0  0  0  0  0  0  0  0  0  0  0  0
    6.0963    0.7699    2.5249 C   0  0  0  0  0  0  0  0  0  0  0  0
    6.8532   -1.6126    1.8963 C   0  0  0  0  0  0  0  0  0  0  0  0
    5.7997   -0.7576    2.5913 C   0  0  2  0  0  0  0  0  0  0  0  0
    5.7532    1.3456    1.1352 C   0  0  0  0  0  0  0  0  0  0  0  0
    5.1341    1.4758    3.5239 C   0  0  0  0  0  0  0  0  0  0  0  0
    4.5402   -1.0799    2.0028 O   0  0  0  0  0  0  0  0  0  0  0  0
   18.1318    0.5576    0.3261 H   0  0  0  0  0  0  0  0  0  0  0  0
   17.6333   -1.0904    3.9402 H   0  0  0  0  0  0  0  0  0  0  0  0
   19.8734   -1.0394    2.8972 H   0  0  0  0  0  0  0  0  0  0  0  0
   19.8405    0.6337    2.3944 H   0  0  0  0  0  0  0  0  0  0  0  0
   19.9699   -0.6350    1.2001 H   0  0  0  0  0  0  0  0  0  0  0  0
   17.8697   -2.5594    2.1243 H   0  0  0  0  0  0  0  0  0  0  0  0
   18.1317   -1.9267    0.5168 H   0  0  0  0  0  0  0  0  0  0  0  0
   16.5567   -1.7946    1.2618 H   0  0  0  0  0  0  0  0  0  0  0  0
   15.4043   -0.2164    2.3534 H   0  0  0  0  0  0  0  0  0  0  0  0
   18.1021    1.8113    3.4503 H   0  0  0  0  0  0  0  0  0  0  0  0
   18.6121    0.8841    4.8009 H   0  0  0  0  0  0  0  0  0  0  0  0
   15.4108   -1.9801    3.8016 H   0  0  0  0  0  0  0  0  0  0  0  0
   15.3740    2.0208    3.1060 H   0  0  0  0  0  0  0  0  0  0  0  0
   16.6309    2.5768    5.1645 H   0  0  0  0  0  0  0  0  0  0  0  0
   16.4050    1.0353    5.8410 H   0  0  0  0  0  0  0  0  0  0  0  0
   14.1253    0.8158    5.3474 H   0  0  0  0  0  0  0  0  0  0  0  0
   14.2863    3.6017    4.2064 H   0  0  0  0  0  0  0  0  0  0  0  0
   13.9424    3.1815    5.8507 H   0  0  0  0  0  0  0  0  0  0  0  0
   12.4842   -0.8423    4.6398 H   0  0  0  0  0  0  0  0  0  0  0  0
   13.2118   -0.9537    3.0371 H   0  0  0  0  0  0  0  0  0  0  0  0
   13.8112    1.0308    1.7529 H   0  0  0  0  0  0  0  0  0  0  0  0
   13.1208    2.5773    2.1823 H   0  0  0  0  0  0  0  0  0  0  0  0
   12.0865    1.2819    1.6299 H   0  0  0  0  0  0  0  0  0  0  0  0
   12.0595    3.7249    3.6561 H   0  0  0  0  0  0  0  0  0  0  0  0
   11.7292    3.7314    5.3394 H   0  0  0  0  0  0  0  0  0  0  0  0
   10.7741    1.9579    6.4117 H   0  0  0  0  0  0  0  0  0  0  0  0
   12.2774    1.0680    6.3739 H   0  0  0  0  0  0  0  0  0  0  0  0
   10.8009    0.3130    5.8232 H   0  0  0  0  0  0  0  0  0  0  0  0
   10.6718   -1.5896    3.5259 H   0  0  0  0  0  0  0  0  0  0  0  0
   11.2830   -0.8872    1.9733 H   0  0  0  0  0  0  0  0  0  0  0  0
    9.7996    3.5749    3.3563 H   0  0  0  0  0  0  0  0  0  0  0  0
    9.0242    2.7851    4.7668 H   0  0  0  0  0  0  0  0  0  0  0  0
    8.1779    2.7946    1.9378 H   0  0  0  0  0  0  0  0  0  0  0  0
    7.2513    3.0886    3.4037 H   0  0  0  0  0  0  0  0  0  0  0  0
    7.5151    0.7045    4.0015 H   0  0  0  0  0  0  0  0  0  0  0  0
    8.2587   -1.6253    3.4846 H   0  0  0  0  0  0  0  0  0  0  0  0
    8.9310   -1.9403    1.8700 H   0  0  0  0  0  0  0  0  0  0  0  0
    8.2569    1.1413    0.4782 H   0  0  0  0  0  0  0  0  0  0  0  0
    8.9289   -0.4573    0.2633 H   0  0  0  0  0  0  0  0  0  0  0  0
    9.9617    0.8669    0.7455 H   0  0  0  0  0  0  0  0  0  0  0  0
    6.6103   -2.6449    2.0388 H   0  0  0  0  0  0  0  0  0  0  0  0
    6.8555   -1.3572    0.8573 H   0  0  0  0  0  0  0  0  0  0  0  0
    5.8008   -0.9806    3.6378 H   0  0  0  0  0  0  0  0  0  0  0  0
    6.0168    0.6351    0.3798 H   0  0  0  0  0  0  0  0  0  0  0  0
    6.3008    2.2514    0.9793 H   0  0  0  0  0  0  0  0  0  0  0  0
    4.7041    1.5494    1.0826 H   0  0  0  0  0  0  0  0  0  0  0  0
    5.4505    1.2750    4.5262 H   0  0  0  0  0  0  0  0  0  0  0  0
    4.1399    1.1063    3.3830 H   0  0  0  0  0  0  0  0  0  0  0  0
    5.1505    2.5313    3.3494 H   0  0  0  0  0  0  0  0  0  0  0  0
    4.5895   -0.9512    1.0427 H   0  0  0  0  0  0  0  0  0  0  0  0
  1  2  1  0  0  0  0
  1 34  1  0  0  0  0
  2  3  1  0  0  0  0
  2  4  1  0  0  0  0
  2  5  1  0  0  0  0
  3  6  1  0  0  0  0
  3  7  1  0  0  0  0
  3 35  1  0  0  0  0
  4 36  1  0  0  0  0
  4 37  1  0  0  0  0
  4 38  1  0  0  0  0
  5 39  1  0  0  0  0
  5 40  1  0  0  0  0
  5 41  1  0  0  0  0
  6  8  1  0  0  0  0
  6  9  1  0  0  0  0
  6 42  1  0  0  0  0
  7 10  1  0  0  0  0
  7 43  1  0  0  0  0
  7 44  1  0  0  0  0
  8 45  1  0  0  0  0
  9 11  1  0  0  0  0
  9 10  1  0  0  0  0
  9 46  1  0  0  0  0
 10 47  1  0  0  0  0
 10 48  1  0  0  0  0
 11 12  1  0  0  0  0
 11 13  1  0  0  0  0
 11 49  1  0  0  0  0
 12 14  1  0  0  0  0
 12 15  1  0  0  0  0
 12 16  1  0  0  0  0
 13 17  1  0  0  0  0
 13 50  1  0  0  0  0
 13 51  1  0  0  0  0
 14 18  1  0  0  0  0
 14 19  1  0  0  0  0
 14 17  1  0  0  0  0
 15 20  1  0  0  0  0
 15 52  1  0  0  0  0
 15 53  1  0  0  0  0
 16 54  1  0  0  0  0
 16 55  1  0  0  0  0
 16 56  1  0  0  0  0
 17 57  1  0  0  0  0
 17 58  1  0  0  0  0
 18 21  2  0  0  0  0
 18 22  1  0  0  0  0
 19 59  1  0  0  0  0
 19 60  1  0  0  0  0
 19 61  1  0  0  0  0
 20 21  1  0  0  0  0
 20 62  1  0  0  0  0
 20 63  1  0  0  0  0
 21 23  1  0  0  0  0
 22 24  1  0  0  0  0
 22 64  1  0  0  0  0
 22 65  1  0  0  0  0
 23 25  1  0  0  0  0
 23 26  1  0  0  0  0
 23 27  1  0  0  0  0
 24 25  1  0  0  0  0
 24 66  1  0  0  0  0
 24 67  1  0  0  0  0
 25 28  1  0  0  0  0
 25 68  1  0  0  0  0
 26 29  1  0  0  0  0
 26 69  1  0  0  0  0
 26 70  1  0  0  0  0
 27 71  1  0  0  0  0
 27 72  1  0  0  0  0
 27 73  1  0  0  0  0
 28 30  1  0  0  0  0
 28 31  1  0  0  0  0
 28 32  1  0  0  0  0
 29 30  1  0  0  0  0
 29 74  1  0  0  0  0
 29 75  1  0  0  0  0
 30 33  1  0  0  0  0
 30 76  1  0  0  0  0
 31 77  1  0  0  0  0
 31 78  1  0  0  0  0
 31 79  1  0  0  0  0
 32 80  1  0  0  0  0
 32 81  1  0  0  0  0
 32 82  1  0  0  0  0
 33 83  1  0  0  0  0
M  END
>  <Code-name>
135

>  <Compound>
Inonotusane B

>  <Specie>
Inonotus obliquus

>  <Reference>
GrÃ¼ndemann (2020)

>  <Organism>
Antitumoral Activity

>  <Smiles>
CC(C)([C@@H](CC[C@@H]1[C@@H](CC2)[C@@](C)(CC3)[C@]2(C)C(CC2)=C3[C@@](C)(CC3)[C@@H]2C(C)(C)[C@H]3O)[C@H]1O)O

>  <MMFF94 Energy>
140.22

>  <Total Molweight>
458.724

>  <Molweight>
458.724

>  <Monoisotopic Mass>
458.375995

>  <cLogP>
5.8096

>  <cLogS>
-5.844

>  <H-Acceptors>
3

>  <H-Donors>
3

>  <Total Surface Area>
338.44

>  <Relative PSA>
0.11612

>  <Polar Surface Area>
60.69

>  <Druglikeness>
-2.2679

>  <Mutagenic>
none

>  <Tumorigenic>
none

>  <Reproductive Effective>
low

>  <Irritant>
none

>  <Nasty Functions>


>  <Shape Index>
0.45455

>  <Molecular Flexibility>
0.18623

>  <Molecular Complexity>
1.0132

>  <Fragments>
1

>  <Non-H Atoms>
33

>  <Non-C/H Atoms>
3

>  <Metal-Atoms>
0

>  <Electronegative Atoms>
3

>  <Stereo Centers>
9

>  <Rotatable Bonds>
2

>  <Rings Closures>
5

>  <Small Rings>
5

>  <Aromatic Rings>
0

>  <Aromatic Atoms>
0

>  <sp3-Atoms>
31

>  <Symmetric atoms>
2

>  <Amides>
0

>  <Amines>
0

>  <Alkyl-Amines>
0

>  <Aromatic Amines>
0

>  <Aromatic Nitrogens>
0

>  <Basic Nitrogens>
0

>  <Acidic Oxygens>
0

>  <Stereo Configuration>
this enantiomer

> <Gold.Version>
5.8.1

> <Gold.Id.Protein>
ID_2|Prot_COX2_5IKQ_Alig|mol2

> <Gold.Goldscore.Fitness>
-70.2915

> <Gold.Goldscore.Internal.Vdw>
-28.1011

> <Gold.Goldscore.Internal.Torsion>
-5.5840

> <Gold.Goldscore.External.Vdw>
-50.0378

> <Gold.Goldscore.Internal.HBond>
0.0000

> <Gold.Goldscore.External.HBond>
3.1360

> <Gold.Goldscore.Internal.Correction>
-29.0597

> <Gold.Goldscore.Hbonds>
donor molecule, donor type, donor heavy atom, donor atom, acceptor molecule, acceptor atom, score
      P1  H  1377  1390       L1     1  0.28
      P1  H  5068  5077       L1    33  0.41
      P1  H  5176  5185       L1     8  0.03
      P1  H  5703  5712       L1    33  0.29

> <Gold.Goldscore.Internal.Vdw.Weighted>
-28.1011

> <Gold.Goldscore.Internal.Torsion.Weighted>
-5.5840

> <Gold.Goldscore.External.Vdw.Weighted>
-68.8020

> <Gold.Goldscore.Internal.HBond.Weighted>
0.0000

> <Gold.Goldscore.External.HBond.Weighted>
3.1360

> <Gold.Goldscore.Internal.Correction.Weighted>
-29.0597

> <Gold.Protein.RotatedTorsions>
[ 5077 5068 5067 5065 ] final -157.13 input  179.94 | X-H torsion
[ 5157 5152 5151 5148 ] final  177.39 input -179.92 | X-H torsion
[ 5185 5176 5175 5173 ] final   52.67 input -179.99 | X-H torsion
[ 5712 5703 5702 5700 ] final   95.78 input  180.00 | X-H torsion
[ 8036 8031 8030 8027 ] final  -40.06 input -179.94 | X-H torsion
[ 2749 2745 2743 2740 ] final  -87.13 input  -60.05 | X-H torsion
[ 1366 1361 1360 1357 ] final -100.48 input  -60.09 | X-H torsion
[ 2556 2551 2550 2547 ] final -115.00 input   59.97 | X-H torsion

> <Gold.Protein.ActiveResidues>
 PRO86   VAL89   HIS90   LEU93   THR94   ILE112  MET113  TYR115  VAL116  LEU117 
 THR118  SER119  ARG120  SER121  LEU123  ILE124  GLN192  SER194  PHE198  PHE201 
 ALA202  GLN203  PHE205  THR206  PHE209  PHE210  VAL228  ILE341  ILE343  VAL344 
 ILE345  GLU346  ASP347  TYR348  VAL349  GLN350  HIS351  LEU352  SER353  GLY354 
 TYR355  PHE357  LEU359  LYS360  GLU380  PHE381  ASN382  THR383  LEU384  TYR385 
 HIS386  TRP387  LEU390  VAL434  LEU507  ARG513  ALA516  ILE517  PHE518  GLY519 
 GLU520  THR521  MET522  VAL523  GLU524  VAL525  GLY526  ALA527  PRO528  PHE529 
 SER530  LEU531  LYS532  GLY533  LEU534  MET535  COH609 

> <Gold.Protein.RotatedAtoms>
   18.3011    7.4863    3.3750 H   0  0  0  0  0  0  0  0  0  0  0  0  # atno 1366 bound_to 1361
    4.5028   -8.7559    7.3918 H   0  0  0  0  0  0  0  0  0  0  0  0  # atno 2556 bound_to 2551
   -3.2424   -0.3566    1.2939 H   0  0  0  0  0  0  0  0  0  0  0  0  # atno 2749 bound_to 2745
    2.1104   -1.8300    3.7268 H   0  0  0  0  0  0  0  0  0  0  0  0  # atno 5077 bound_to 5068
   12.4318   -1.3815    9.2149 H   0  0  0  0  0  0  0  0  0  0  0  0  # atno 5157 bound_to 5152
   15.3671   -0.9554    4.6459 H   0  0  0  0  0  0  0  0  0  0  0  0  # atno 5185 bound_to 5176
    2.9581   -0.7238    2.4612 H   0  0  0  0  0  0  0  0  0  0  0  0  # atno 5712 bound_to 5703
    5.7610    5.2192    3.5347 H   0  0  0  0  0  0  0  0  0  0  0  0  # atno 8036 bound_to 8031
    0.6573   -1.5073    3.9404 LP  0  0  0  0  0  0  0  0  0  0  0  0  # atno 8267 bound_to 5068
    1.2999   -2.9699    4.2790 LP  0  0  0  0  0  0  0  0  0  0  0  0  # atno 8268 bound_to 5068
   12.7415   -2.8543    9.2152 LP  0  0  0  0  0  0  0  0  0  0  0  0  # atno 8279 bound_to 5152
   11.2234   -2.2682    9.3512 LP  0  0  0  0  0  0  0  0  0  0  0  0  # atno 8280 bound_to 5152
   16.7597   -0.4654    4.9273 LP  0  0  0  0  0  0  0  0  0  0  0  0  # atno 8281 bound_to 5176
   15.4437    0.4962    5.0276 LP  0  0  0  0  0  0  0  0  0  0  0  0  # atno 8282 bound_to 5176
    1.5309   -0.7650    2.9305 LP  0  0  0  0  0  0  0  0  0  0  0  0  # atno 8283 bound_to 5703
    2.2903    0.6213    2.5204 LP  0  0  0  0  0  0  0  0  0  0  0  0  # atno 8284 bound_to 5703
    6.0774    3.7590    3.7016 LP  0  0  0  0  0  0  0  0  0  0  0  0  # atno 8309 bound_to 8031
    4.6223    4.2989    3.1937 LP  0  0  0  0  0  0  0  0  0  0  0  0  # atno 8310 bound_to 8031
   -3.0051   -0.3499   -0.1917 LP  0  0  0  0  0  0  0  0  0  0  0  0  # atno 8323 bound_to 2745
   -4.3227    0.3241    0.4983 LP  0  0  0  0  0  0  0  0  0  0  0  0  # atno 8324 bound_to 2745
   18.7653    6.4667    2.3705 LP  0  0  0  0  0  0  0  0  0  0  0  0  # atno 8335 bound_to 1361
   17.5399    7.5054    2.0772 LP  0  0  0  0  0  0  0  0  0  0  0  0  # atno 8336 bound_to 1361
    4.9499   -9.9179    6.5469 LP  0  0  0  0  0  0  0  0  0  0  0  0  # atno 8342 bound_to 2551
    5.1938   -9.8497    8.1601 LP  0  0  0  0  0  0  0  0  0  0  0  0  # atno 8343 bound_to 2551

