
137|LMW3_p|sdf|137|dock1
  -GOLD-   6 92212583D 1   1.00000     0.00000

 51 53  0  0  0  0  0  0  0  0  1 V2000
    8.2793    3.7343    4.1872 O   0  0  0  0  0  0  0  0  0  0  0  0
    8.5736    2.7080    3.5823 C   0  0  0  0  0  0  0  0  0  0  0  0
    9.8547    2.0207    3.8327 C   0  0  0  0  0  0  0  0  0  0  0  0
    7.6929    2.1374    2.5065 C   0  0  0  0  0  0  0  0  0  0  0  0
   10.1013    0.7550    3.2896 C   0  0  0  0  0  0  0  0  0  0  0  0
   10.8291    2.6871    4.5944 C   0  0  0  0  0  0  0  0  0  0  0  0
    7.5948    0.6009    2.5954 C   0  0  2  0  0  0  0  0  0  0  0  0
   11.3821    0.2008    3.4949 C   0  0  0  0  0  0  0  0  0  0  0  0
    9.0353   -0.0366    2.4974 C   0  0  2  0  0  0  0  0  0  0  0  0
   12.0890    2.1166    4.8138 C   0  0  0  0  0  0  0  0  0  0  0  0
    6.5556    0.0307    1.5441 C   0  0  0  0  0  0  0  0  0  0  0  0
   12.3553    0.8673    4.2455 C   0  0  0  0  0  0  0  0  0  0  0  0
    9.0276   -1.4814    3.0939 C   0  0  0  0  0  0  0  0  0  0  0  0
    9.5144   -0.0543    1.0174 C   0  0  0  0  0  0  0  0  0  0  0  0
   13.1246    2.8614    5.6369 C   0  0  0  0  0  0  0  0  0  0  0  0
    7.1532    0.0553    0.1215 C   0  0  0  0  0  0  0  0  0  0  0  0
    5.2458    0.8587    1.5206 C   0  0  0  0  0  0  0  0  0  0  0  0
    6.1153   -1.4083    1.9000 C   0  0  0  0  0  0  0  0  0  0  0  0
    9.0908   -2.4863    2.3802 O   0  0  0  0  0  0  0  0  0  0  0  0
    8.9739   -1.6407    4.5990 C   0  0  0  0  0  0  0  0  0  0  0  0
    8.5076   -0.6303    0.0273 C   0  0  0  0  0  0  0  0  0  0  0  0
   13.0190    2.5135    7.1238 C   0  0  0  0  0  0  0  0  0  0  0  0
   14.5417    2.6086    5.1169 C   0  0  0  0  0  0  0  0  0  0  0  0
    8.0970    2.4031    1.5520 H   0  0  0  0  0  0  0  0  0  0  0  0
    6.7099    2.5396    2.6360 H   0  0  0  0  0  0  0  0  0  0  0  0
   10.6129    3.6117    4.9988 H   0  0  0  0  0  0  0  0  0  0  0  0
    7.2042    0.3174    3.5504 H   0  0  0  0  0  0  0  0  0  0  0  0
   11.6059   -0.7179    3.0815 H   0  0  0  0  0  0  0  0  0  0  0  0
   13.2810    0.4320    4.3816 H   0  0  0  0  0  0  0  0  0  0  0  0
   10.4076   -0.6411    0.9636 H   0  0  0  0  0  0  0  0  0  0  0  0
    9.6635    0.9672    0.7363 H   0  0  0  0  0  0  0  0  0  0  0  0
   12.9180    3.9059    5.5310 H   0  0  0  0  0  0  0  0  0  0  0  0
    7.2666    1.0751   -0.1819 H   0  0  0  0  0  0  0  0  0  0  0  0
    6.4807   -0.4815   -0.5146 H   0  0  0  0  0  0  0  0  0  0  0  0
    4.9386    1.0688    2.5238 H   0  0  0  0  0  0  0  0  0  0  0  0
    4.4803    0.3012    1.0225 H   0  0  0  0  0  0  0  0  0  0  0  0
    5.4142    1.7778    0.9993 H   0  0  0  0  0  0  0  0  0  0  0  0
    5.5821   -1.8325    1.0749 H   0  0  0  0  0  0  0  0  0  0  0  0
    5.4800   -1.3842    2.7607 H   0  0  0  0  0  0  0  0  0  0  0  0
    6.9790   -2.0038    2.1106 H   0  0  0  0  0  0  0  0  0  0  0  0
    8.0342   -1.2806    4.9625 H   0  0  0  0  0  0  0  0  0  0  0  0
    9.7678   -1.0793    5.0456 H   0  0  0  0  0  0  0  0  0  0  0  0
    9.0818   -2.6747    4.8523 H   0  0  0  0  0  0  0  0  0  0  0  0
    8.3810   -1.6730    0.2315 H   0  0  0  0  0  0  0  0  0  0  0  0
    8.8889   -0.4704   -0.9597 H   0  0  0  0  0  0  0  0  0  0  0  0
   13.8449    2.9440    7.6503 H   0  0  0  0  0  0  0  0  0  0  0  0
   13.0348    1.4503    7.2433 H   0  0  0  0  0  0  0  0  0  0  0  0
   12.1032    2.9030    7.5170 H   0  0  0  0  0  0  0  0  0  0  0  0
   14.5684    2.7726    4.0599 H   0  0  0  0  0  0  0  0  0  0  0  0
   14.8243    1.5984    5.3282 H   0  0  0  0  0  0  0  0  0  0  0  0
   15.2233    3.2778    5.5991 H   0  0  0  0  0  0  0  0  0  0  0  0
  1  2  2  0  0  0  0
  2  3  1  0  0  0  0
  2  4  1  0  0  0  0
  3  5  2  0  0  0  0
  3  6  1  0  0  0  0
  4  7  1  0  0  0  0
  4 24  1  0  0  0  0
  4 25  1  0  0  0  0
  5  8  1  0  0  0  0
  5  9  1  0  0  0  0
  6 10  2  0  0  0  0
  6 26  1  0  0  0  0
  7 11  1  0  0  0  0
  7  9  1  0  0  0  0
  7 27  1  0  0  0  0
  8 12  2  0  0  0  0
  8 28  1  0  0  0  0
  9 13  1  0  0  0  0
  9 14  1  0  0  0  0
 10 15  1  0  0  0  0
 10 12  1  0  0  0  0
 11 16  1  0  0  0  0
 11 17  1  0  0  0  0
 11 18  1  0  0  0  0
 12 29  1  0  0  0  0
 13 19  2  0  0  0  0
 13 20  1  0  0  0  0
 14 21  1  0  0  0  0
 14 30  1  0  0  0  0
 14 31  1  0  0  0  0
 15 22  1  0  0  0  0
 15 23  1  0  0  0  0
 15 32  1  0  0  0  0
 16 21  1  0  0  0  0
 16 33  1  0  0  0  0
 16 34  1  0  0  0  0
 17 35  1  0  0  0  0
 17 36  1  0  0  0  0
 17 37  1  0  0  0  0
 18 38  1  0  0  0  0
 18 39  1  0  0  0  0
 18 40  1  0  0  0  0
 20 41  1  0  0  0  0
 20 42  1  0  0  0  0
 20 43  1  0  0  0  0
 21 44  1  0  0  0  0
 21 45  1  0  0  0  0
 22 46  1  0  0  0  0
 22 47  1  0  0  0  0
 22 48  1  0  0  0  0
 23 49  1  0  0  0  0
 23 50  1  0  0  0  0
 23 51  1  0  0  0  0
M  END
>  <Code-name>
137

>  <Compound>
Inonotusic acid

>  <Specie>
Inonotus obliquus

>  <Reference>
GrÃ¼ndemann (2020)

>  <Organism>
Antitumoral Activity

>  <Smiles>
CC(C)c1cc(C(C[C@@H](C(C)(C)CCC2)[C@@]22C(C)=O)=O)c2cc1

>  <MMFF94 Energy>
91.866

>  <Total Molweight>
312.451

>  <Molweight>
312.451

>  <Monoisotopic Mass>
312.208930

>  <cLogP>
4.5659

>  <cLogS>
-5.462

>  <H-Acceptors>
2

>  <H-Donors>
0

>  <Total Surface Area>
243.92

>  <Relative PSA>
0.10692

>  <Polar Surface Area>
34.14

>  <Druglikeness>
-4.2891

>  <Mutagenic>
none

>  <Tumorigenic>
none

>  <Reproductive Effective>
high

>  <Irritant>
none

>  <Nasty Functions>


>  <Shape Index>
0.43478

>  <Molecular Flexibility>
0.29016

>  <Molecular Complexity>
0.9311

>  <Fragments>
1

>  <Non-H Atoms>
23

>  <Non-C/H Atoms>
2

>  <Metal-Atoms>
0

>  <Electronegative Atoms>
2

>  <Stereo Centers>
2

>  <Rotatable Bonds>
2

>  <Rings Closures>
3

>  <Small Rings>
3

>  <Aromatic Rings>
1

>  <Aromatic Atoms>
6

>  <sp3-Atoms>
13

>  <Symmetric atoms>
2

>  <Amides>
0

>  <Amines>
0

>  <Alkyl-Amines>
0

>  <Aromatic Amines>
0

>  <Aromatic Nitrogens>
0

>  <Basic Nitrogens>
0

>  <Acidic Oxygens>
0

>  <Stereo Configuration>
this enantiomer

> <Gold.Version>
5.8.1

> <Gold.Id.Protein>
ID_2|Prot_COX2_5IKQ_Alig|mol2

> <Gold.Goldscore.Fitness>
41.7722

> <Gold.Goldscore.Internal.Vdw>
-10.8437

> <Gold.Goldscore.Internal.Torsion>
-2.5308

> <Gold.Goldscore.External.Vdw>
33.6579

> <Gold.Goldscore.Internal.HBond>
0.0000

> <Gold.Goldscore.External.HBond>
0.9166

> <Gold.Goldscore.Internal.Correction>
-7.9504

> <Gold.Goldscore.Hbonds>
donor molecule, donor type, donor heavy atom, donor atom, acceptor molecule, acceptor atom, score
      P1  H  8031  8036       L1     1  0.46

> <Gold.Goldscore.Internal.Vdw.Weighted>
-10.8437

> <Gold.Goldscore.Internal.Torsion.Weighted>
-2.5308

> <Gold.Goldscore.External.Vdw.Weighted>
46.2796

> <Gold.Goldscore.Internal.HBond.Weighted>
0.0000

> <Gold.Goldscore.External.HBond.Weighted>
0.9166

> <Gold.Goldscore.Internal.Correction.Weighted>
-7.9504

> <Gold.Protein.RotatedTorsions>
[ 5077 5068 5067 5065 ] final  -83.48 input  179.94 | X-H torsion
[ 5157 5152 5151 5148 ] final -141.68 input -179.92 | X-H torsion
[ 5185 5176 5175 5173 ] final   60.55 input -179.99 | X-H torsion
[ 5712 5703 5702 5700 ] final   38.85 input  180.00 | X-H torsion
[ 8036 8031 8030 8027 ] final -120.04 input -179.94 | X-H torsion
[ 2749 2745 2743 2740 ] final  149.98 input  -60.05 | X-H torsion
[ 1366 1361 1360 1357 ] final  -67.32 input  -60.09 | X-H torsion
[ 2556 2551 2550 2547 ] final -165.12 input   59.97 | X-H torsion

> <Gold.Protein.ActiveResidues>
 PRO86   VAL89   HIS90   LEU93   THR94   ILE112  MET113  TYR115  VAL116  LEU117 
 THR118  SER119  ARG120  SER121  LEU123  ILE124  GLN192  SER194  PHE198  PHE201 
 ALA202  GLN203  PHE205  THR206  PHE209  PHE210  VAL228  ILE341  ILE343  VAL344 
 ILE345  GLU346  ASP347  TYR348  VAL349  GLN350  HIS351  LEU352  SER353  GLY354 
 TYR355  PHE357  LEU359  LYS360  GLU380  PHE381  ASN382  THR383  LEU384  TYR385 
 HIS386  TRP387  LEU390  VAL434  LEU507  ARG513  ALA516  ILE517  PHE518  GLY519 
 GLU520  THR521  MET522  VAL523  GLU524  VAL525  GLY526  ALA527  PRO528  PHE529 
 SER530  LEU531  LYS532  GLY533  LEU534  MET535  COH609 

> <Gold.Protein.RotatedAtoms>
   17.9645    7.7134    3.1784 H   0  0  0  0  0  0  0  0  0  0  0  0  # atno 1366 bound_to 1361
    4.5311   -9.0386    6.7856 H   0  0  0  0  0  0  0  0  0  0  0  0  # atno 2556 bound_to 2551
   -3.0931   -0.2628   -0.0824 H   0  0  0  0  0  0  0  0  0  0  0  0  # atno 2749 bound_to 2745
    1.9047   -2.6855    4.0749 H   0  0  0  0  0  0  0  0  0  0  0  0  # atno 5077 bound_to 5068
   11.8809   -1.3760    9.2617 H   0  0  0  0  0  0  0  0  0  0  0  0  # atno 5157 bound_to 5152
   15.2843   -0.8861    4.6548 H   0  0  0  0  0  0  0  0  0  0  0  0  # atno 5185 bound_to 5176
    2.3502   -1.1009    2.6900 H   0  0  0  0  0  0  0  0  0  0  0  0  # atno 5712 bound_to 5703
    6.2480    4.3477    3.7099 H   0  0  0  0  0  0  0  0  0  0  0  0  # atno 8036 bound_to 8031
    1.7073   -1.2759    3.5896 LP  0  0  0  0  0  0  0  0  0  0  0  0  # atno 8267 bound_to 5068
    0.4963   -2.1769    4.2129 LP  0  0  0  0  0  0  0  0  0  0  0  0  # atno 8268 bound_to 5068
   13.0772   -2.2866    9.1935 LP  0  0  0  0  0  0  0  0  0  0  0  0  # atno 8279 bound_to 5152
   11.5467   -2.8424    9.3168 LP  0  0  0  0  0  0  0  0  0  0  0  0  # atno 8280 bound_to 5152
   16.7385   -0.5876    4.8893 LP  0  0  0  0  0  0  0  0  0  0  0  0  # atno 8281 bound_to 5176
   15.5643    0.5352    5.0550 LP  0  0  0  0  0  0  0  0  0  0  0  0  # atno 8282 bound_to 5176
    1.4932    0.1267    2.8205 LP  0  0  0  0  0  0  0  0  0  0  0  0  # atno 8283 bound_to 5703
    3.0577    0.1822    2.3559 LP  0  0  0  0  0  0  0  0  0  0  0  0  # atno 8284 bound_to 5703
    4.9313    3.7459    3.3048 LP  0  0  0  0  0  0  0  0  0  0  0  0  # atno 8309 bound_to 8031
    5.1842    5.3575    3.3803 LP  0  0  0  0  0  0  0  0  0  0  0  0  # atno 8310 bound_to 8031
   -4.3281    0.3207    0.5483 LP  0  0  0  0  0  0  0  0  0  0  0  0  # atno 8323 bound_to 2745
   -3.1784   -0.4588    1.4068 LP  0  0  0  0  0  0  0  0  0  0  0  0  # atno 8324 bound_to 2745
   18.9089    6.5816    2.8766 LP  0  0  0  0  0  0  0  0  0  0  0  0  # atno 8335 bound_to 1361
   17.7989    7.1188    1.8062 LP  0  0  0  0  0  0  0  0  0  0  0  0  # atno 8336 bound_to 1361
    5.2392  -10.3053    7.1834 LP  0  0  0  0  0  0  0  0  0  0  0  0  # atno 8342 bound_to 2551
    4.8707   -9.1240    8.2489 LP  0  0  0  0  0  0  0  0  0  0  0  0  # atno 8343 bound_to 2551

