
140|LMW3_p|sdf|140|dock18
  -GOLD-   6 92213 43D 1   1.00000     0.00000

 20 20  0  0  0  0  0  0  0  0  2 V2000
   13.5862    0.6628    4.3598 O   0  0  0  0  0  0  0  0  0  0  0  0
   12.4303    0.3231    4.1987 C   0  0  0  0  0  0  0  0  0  0  0  0
   11.4166    1.2030    4.1999 O   0  5  0  0  0  0  0  0  0  0  0  0
   11.9168   -1.0364    3.9810 C   0  0  0  0  0  0  0  0  0  0  0  0
   12.7804   -2.0526    3.8313 C   0  0  0  0  0  0  0  0  0  0  0  0
   12.4326   -3.4682    3.6066 C   0  0  0  0  0  0  0  0  0  0  0  0
   13.4690   -4.3624    3.2893 C   0  0  0  0  0  0  0  0  0  0  0  0
   11.1241   -3.9677    3.6927 C   0  0  0  0  0  0  0  0  0  0  0  0
   13.1977   -5.7137    3.0663 C   0  0  0  0  0  0  0  0  0  0  0  0
   10.8536   -5.3233    3.4688 C   0  0  0  0  0  0  0  0  0  0  0  0
   14.2089   -6.5806    2.7579 O   0  0  0  0  0  0  0  0  0  0  0  0
   11.8932   -6.1924    3.1559 C   0  0  0  0  0  0  0  0  0  0  0  0
   11.6458   -7.5173    2.9347 O   0  0  0  0  0  0  0  0  0  0  0  0
   10.8999   -1.2084    3.9436 H   0  0  0  0  0  0  0  0  0  0  0  0
   13.7850   -1.8212    3.8779 H   0  0  0  0  0  0  0  0  0  0  0  0
   14.4392   -4.0174    3.2206 H   0  0  0  0  0  0  0  0  0  0  0  0
   10.3494   -3.3264    3.9245 H   0  0  0  0  0  0  0  0  0  0  0  0
    9.8861   -5.6761    3.5358 H   0  0  0  0  0  0  0  0  0  0  0  0
   14.0093   -7.4450    2.4562 H   0  0  0  0  0  0  0  0  0  0  0  0
   11.2058   -8.0270    3.5864 H   0  0  0  0  0  0  0  0  0  0  0  0
  1  2  2  0  0  0  0
  2  3  1  0  0  0  0
  2  4  1  0  0  0  0
  4  5  2  0  0  0  0
  4 14  1  0  0  0  0
  5  6  1  0  0  0  0
  5 15  1  0  0  0  0
  6  7  2  0  0  0  0
  6  8  1  0  0  0  0
  7  9  1  0  0  0  0
  7 16  1  0  0  0  0
  8 10  2  0  0  0  0
  8 17  1  0  0  0  0
  9 11  1  0  0  0  0
  9 12  2  0  0  0  0
 10 12  1  0  0  0  0
 10 18  1  0  0  0  0
 11 19  1  0  0  0  0
 12 13  1  0  0  0  0
 13 20  1  0  0  0  0
M  CHG  1   3  -1
M  END
>  <Code-name>
140

>  <Compound>
Caffeic acid - fenólico

>  <Specie>
Inonotus obliquus

>  <Reference>
Gründemann (2020)

>  <Organism>
Antitumoral Activity

>  <Smiles>
OC(/C=C/c(cc1)cc(O)c1O)=O

>  <MMFF94 Energy>
-15.044

>  <Total Molweight>
180.159

>  <Molweight>
180.159

>  <Monoisotopic Mass>
180.042260

>  <cLogP>
0.7825

>  <cLogS>
-1.407

>  <H-Acceptors>
4

>  <H-Donors>
3

>  <Total Surface Area>
136.56

>  <Relative PSA>
0.38327

>  <Polar Surface Area>
77.76

>  <Druglikeness>
0.1675

>  <Mutagenic>
high

>  <Tumorigenic>
high

>  <Reproductive Effective>
high

>  <Irritant>
none

>  <Nasty Functions>


>  <Shape Index>
0.69231

>  <Molecular Flexibility>
0.39892

>  <Molecular Complexity>
0.61059

>  <Fragments>
1

>  <Non-H Atoms>
13

>  <Non-C/H Atoms>
4

>  <Metal-Atoms>
0

>  <Electronegative Atoms>
4

>  <Stereo Centers>
0

>  <Rotatable Bonds>
2

>  <Rings Closures>
1

>  <Small Rings>
1

>  <Aromatic Rings>
1

>  <Aromatic Atoms>
6

>  <sp3-Atoms>
3

>  <Symmetric atoms>
0

>  <Amides>
0

>  <Amines>
0

>  <Alkyl-Amines>
0

>  <Aromatic Amines>
0

>  <Aromatic Nitrogens>
0

>  <Basic Nitrogens>
0

>  <Acidic Oxygens>
1

>  <Stereo Configuration>


> <Gold.Version>
5.8.1

> <Gold.Id.Protein>
ID_2|Prot_COX2_5IKQ_Alig|mol2

> <Gold.Goldscore.Fitness>
45.6452

> <Gold.Goldscore.Internal.Vdw>
-2.4530

> <Gold.Goldscore.Internal.Torsion>
-1.9263

> <Gold.Goldscore.External.Vdw>
27.1266

> <Gold.Goldscore.Internal.HBond>
0.0000

> <Gold.Goldscore.External.HBond>
9.9301

> <Gold.Goldscore.Internal.Correction>
-2.7954

> <Gold.Goldscore.Hbonds>
donor molecule, donor type, donor heavy atom, donor atom, acceptor molecule, acceptor atom, score
      P1  H  5176  5185       L1     1  1.00
      P1  H  7785  7796       L1    11  0.30
      P1  H  7855  7866       L1    13  0.23
      L1  H    13    20       P1  2530  0.85

> <Gold.Goldscore.Internal.Vdw.Weighted>
-2.4530

> <Gold.Goldscore.Internal.Torsion.Weighted>
-1.9263

> <Gold.Goldscore.External.Vdw.Weighted>
37.2991

> <Gold.Goldscore.Internal.HBond.Weighted>
0.0000

> <Gold.Goldscore.External.HBond.Weighted>
9.9301

> <Gold.Goldscore.Internal.Correction.Weighted>
-2.7954

> <Gold.Protein.RotatedTorsions>
[ 5077 5068 5067 5065 ] final   62.22 input  179.94 | X-H torsion
[ 5157 5152 5151 5148 ] final   99.95 input -179.92 | X-H torsion
[ 5185 5176 5175 5173 ] final  134.97 input -179.99 | X-H torsion
[ 5712 5703 5702 5700 ] final  -13.83 input  180.00 | X-H torsion
[ 8036 8031 8030 8027 ] final -150.11 input -179.94 | X-H torsion
[ 2749 2745 2743 2740 ] final    6.28 input  -60.05 | X-H torsion
[ 1366 1361 1360 1357 ] final  117.21 input  -60.09 | X-H torsion
[ 2556 2551 2550 2547 ] final  -33.28 input   59.97 | X-H torsion

> <Gold.Protein.ActiveResidues>
 PRO86   VAL89   HIS90   LEU93   THR94   ILE112  MET113  TYR115  VAL116  LEU117 
 THR118  SER119  ARG120  SER121  LEU123  ILE124  GLN192  SER194  PHE198  PHE201 
 ALA202  GLN203  PHE205  THR206  PHE209  PHE210  VAL228  ILE341  ILE343  VAL344 
 ILE345  GLU346  ASP347  TYR348  VAL349  GLN350  HIS351  LEU352  SER353  GLY354 
 TYR355  PHE357  LEU359  LYS360  GLU380  PHE381  ASN382  THR383  LEU384  TYR385 
 HIS386  TRP387  LEU390  VAL434  LEU507  ARG513  ALA516  ILE517  PHE518  GLY519 
 GLU520  THR521  MET522  VAL523  GLU524  VAL525  GLY526  ALA527  PRO528  PHE529 
 SER530  LEU531  LYS532  GLY533  LEU534  MET535  COH609 

> <Gold.Protein.RotatedAtoms>
   18.5303    6.6524    2.1544 H   0  0  0  0  0  0  0  0  0  0  0  0  # atno 1366 bound_to 1361
    4.9030   -9.3372    8.1476 H   0  0  0  0  0  0  0  0  0  0  0  0  # atno 2556 bound_to 2551
   -4.1436    0.2212    0.8745 H   0  0  0  0  0  0  0  0  0  0  0  0  # atno 2749 bound_to 2745
    0.6702   -1.8188    4.0946 H   0  0  0  0  0  0  0  0  0  0  0  0  # atno 5077 bound_to 5068
   12.9274   -2.2360    9.1625 H   0  0  0  0  0  0  0  0  0  0  0  0  # atno 5157 bound_to 5152
   15.1323    0.0232    4.8958 H   0  0  0  0  0  0  0  0  0  0  0  0  # atno 5185 bound_to 5176
    1.7282   -0.8146    2.8328 H   0  0  0  0  0  0  0  0  0  0  0  0  # atno 5712 bound_to 5703
    6.0880    3.9750    3.6573 H   0  0  0  0  0  0  0  0  0  0  0  0  # atno 8036 bound_to 8031
    1.6296   -2.9724    4.1948 LP  0  0  0  0  0  0  0  0  0  0  0  0  # atno 8267 bound_to 5068
    2.0523   -1.5181    3.5841 LP  0  0  0  0  0  0  0  0  0  0  0  0  # atno 8268 bound_to 5068
   11.5654   -2.8578    9.3151 LP  0  0  0  0  0  0  0  0  0  0  0  0  # atno 8279 bound_to 5152
   11.8068   -1.2428    9.3140 LP  0  0  0  0  0  0  0  0  0  0  0  0  # atno 8280 bound_to 5152
   15.8631   -1.2518    4.5813 LP  0  0  0  0  0  0  0  0  0  0  0  0  # atno 8281 bound_to 5176
   16.6223    0.1076    5.0736 LP  0  0  0  0  0  0  0  0  0  0  0  0  # atno 8282 bound_to 5176
    2.1296    0.6094    2.5690 LP  0  0  0  0  0  0  0  0  0  0  0  0  # atno 8283 bound_to 5703
    3.1677   -0.6441    2.4359 LP  0  0  0  0  0  0  0  0  0  0  0  0  # atno 8284 bound_to 5703
    4.6630    4.1439    3.2090 LP  0  0  0  0  0  0  0  0  0  0  0  0  # atno 8309 bound_to 8031
    5.6445    5.4066    3.5394 LP  0  0  0  0  0  0  0  0  0  0  0  0  # atno 8310 bound_to 8031
   -2.9052   -0.5846    1.1580 LP  0  0  0  0  0  0  0  0  0  0  0  0  # atno 8323 bound_to 2745
   -3.3431   -0.1332   -0.3490 LP  0  0  0  0  0  0  0  0  0  0  0  0  # atno 8324 bound_to 2745
   17.4836    7.7101    2.3769 LP  0  0  0  0  0  0  0  0  0  0  0  0  # atno 8335 bound_to 1361
   18.5474    7.2596    3.5310 LP  0  0  0  0  0  0  0  0  0  0  0  0  # atno 8336 bound_to 1361
    4.4765   -8.8075    6.8053 LP  0  0  0  0  0  0  0  0  0  0  0  0  # atno 8342 bound_to 2551
    5.1885  -10.2645    6.9975 LP  0  0  0  0  0  0  0  0  0  0  0  0  # atno 8343 bound_to 2551

