
143|LMW3_p|sdf|143|dock3
  -GOLD-   6 92213 93D 1   1.00000     0.00000

 79 82  0  0  0  0  0  0  0  0  2 V2000
   16.2107    2.6344    7.1133 O   0  0  0  0  0  0  0  0  0  0  0  0
   16.4517    2.7162    5.9194 C   0  0  0  0  0  0  0  0  0  0  0  0
   17.5165    3.4137    5.4851 O   0  5  0  0  0  0  0  0  0  0  0  0
   15.6067    2.1214    4.8059 C   0  0  2  0  0  0  0  0  0  0  0  0
   14.1176    2.0673    5.2447 C   0  0  2  0  0  0  0  0  0  0  0  0
   16.1936    0.7594    4.3977 C   0  0  0  0  0  0  0  0  0  0  0  0
   13.0367    1.5082    4.2694 C   0  0  2  0  0  0  0  0  0  0  0  0
   13.5771    3.4943    5.5715 C   0  0  0  0  0  0  0  0  0  0  0  0
   17.7217    0.7781    4.2462 C   0  0  0  0  0  0  0  0  0  0  0  0
   11.7110    2.0797    4.9038 C   0  0  1  0  0  0  0  0  0  0  0  0
   12.8850   -0.0168    4.2072 C   0  0  0  0  0  0  0  0  0  0  0  0
   13.3132    2.0426    2.8291 C   0  0  0  0  0  0  0  0  0  0  0  0
   12.1092    3.5496    5.1130 C   0  0  0  0  0  0  0  0  0  0  0  0
   18.2613   -0.5388    3.7044 C   0  0  0  0  0  0  0  0  0  0  0  0
   10.5139    1.7561    4.0166 C   0  0  0  0  0  0  0  0  0  0  0  0
   11.3431    1.5009    6.3066 C   0  0  0  0  0  0  0  0  0  0  0  0
   11.6179   -0.4354    3.4297 C   0  0  0  0  0  0  0  0  0  0  0  0
   18.9184   -1.3086    4.4059 O   0  0  0  0  0  0  0  0  0  0  0  0
   17.9863   -0.9067    2.2702 C   0  0  0  0  0  0  0  0  0  0  0  0
   10.4572    0.5646    3.3662 C   0  0  0  0  0  0  0  0  0  0  0  0
    9.4054    2.7817    3.9722 C   0  0  0  0  0  0  0  0  0  0  0  0
   17.1840   -1.9276    1.9277 C   0  0  0  0  0  0  0  0  0  0  0  0
   18.6710   -0.0510    1.2440 C   0  0  0  0  0  0  0  0  0  0  0  0
    9.2397    0.1782    2.4812 C   0  0  2  0  0  0  0  0  0  0  0  0
    8.2361    2.4501    3.0442 C   0  0  0  0  0  0  0  0  0  0  0  0
    7.9655    0.9371    3.0150 C   0  0  1  0  0  0  0  0  0  0  0  0
    8.9464   -1.3422    2.5447 C   0  0  0  0  0  0  0  0  0  0  0  0
    9.6497    0.5548    1.0372 C   0  0  0  0  0  0  0  0  0  0  0  0
    6.5755    0.5302    2.3923 C   0  0  0  0  0  0  0  0  0  0  0  0
    7.6578   -1.7424    1.8369 C   0  0  0  0  0  0  0  0  0  0  0  0
    6.4453   -1.0218    2.4152 C   0  0  2  0  0  0  0  0  0  0  0  0
    5.4361    1.1069    3.2820 C   0  0  0  0  0  0  0  0  0  0  0  0
    6.3262    1.0908    0.9767 C   0  0  0  0  0  0  0  0  0  0  0  0
    5.3023   -1.4689    1.6872 O   0  0  0  0  0  0  0  0  0  0  0  0
   15.6311    2.7376    3.9315 H   0  0  0  0  0  0  0  0  0  0  0  0
   14.2119    1.3790    6.0585 H   0  0  0  0  0  0  0  0  0  0  0  0
   15.7628    0.4706    3.4617 H   0  0  0  0  0  0  0  0  0  0  0  0
   15.9606    0.0666    5.1792 H   0  0  0  0  0  0  0  0  0  0  0  0
   14.1510    4.2308    5.0490 H   0  0  0  0  0  0  0  0  0  0  0  0
   13.6520    3.6945    6.6200 H   0  0  0  0  0  0  0  0  0  0  0  0
   18.1609    0.9625    5.2044 H   0  0  0  0  0  0  0  0  0  0  0  0
   17.9736    1.5489    3.5481 H   0  0  0  0  0  0  0  0  0  0  0  0
   12.8219   -0.3996    5.2044 H   0  0  0  0  0  0  0  0  0  0  0  0
   13.7362   -0.4154    3.6958 H   0  0  0  0  0  0  0  0  0  0  0  0
   12.4688    1.8379    2.2047 H   0  0  0  0  0  0  0  0  0  0  0  0
   14.1789    1.5576    2.4288 H   0  0  0  0  0  0  0  0  0  0  0  0
   13.4813    3.0986    2.8667 H   0  0  0  0  0  0  0  0  0  0  0  0
   12.0197    4.0987    4.1989 H   0  0  0  0  0  0  0  0  0  0  0  0
   11.4806    4.0423    5.8250 H   0  0  0  0  0  0  0  0  0  0  0  0
   12.2394    1.2585    6.8387 H   0  0  0  0  0  0  0  0  0  0  0  0
   10.7513    0.6180    6.1842 H   0  0  0  0  0  0  0  0  0  0  0  0
   10.7868    2.2295    6.8584 H   0  0  0  0  0  0  0  0  0  0  0  0
   11.2449   -1.3293    3.8842 H   0  0  0  0  0  0  0  0  0  0  0  0
   11.9440   -0.5356    2.4155 H   0  0  0  0  0  0  0  0  0  0  0  0
    9.8285    3.7101    3.6499 H   0  0  0  0  0  0  0  0  0  0  0  0
    8.9956    2.8132    4.9601 H   0  0  0  0  0  0  0  0  0  0  0  0
   16.7295   -2.4949    2.6603 H   0  0  0  0  0  0  0  0  0  0  0  0
   17.0219   -2.1449    0.9320 H   0  0  0  0  0  0  0  0  0  0  0  0
   18.7344   -0.5852    0.3190 H   0  0  0  0  0  0  0  0  0  0  0  0
   19.6561    0.1931    1.5830 H   0  0  0  0  0  0  0  0  0  0  0  0
   18.1106    0.8488    1.0985 H   0  0  0  0  0  0  0  0  0  0  0  0
    8.4701    2.7826    2.0545 H   0  0  0  0  0  0  0  0  0  0  0  0
    7.3608    2.9452    3.4099 H   0  0  0  0  0  0  0  0  0  0  0  0
    7.8213    0.5937    4.0180 H   0  0  0  0  0  0  0  0  0  0  0  0
    8.8718   -1.6302    3.5725 H   0  0  0  0  0  0  0  0  0  0  0  0
    9.7494   -1.8391    2.0414 H   0  0  0  0  0  0  0  0  0  0  0  0
    8.9274    1.2284    0.6255 H   0  0  0  0  0  0  0  0  0  0  0  0
    9.6951   -0.3299    0.4371 H   0  0  0  0  0  0  0  0  0  0  0  0
   10.6102    1.0264    1.0506 H   0  0  0  0  0  0  0  0  0  0  0  0
    7.5171   -2.7976    1.9446 H   0  0  0  0  0  0  0  0  0  0  0  0
    7.7463   -1.4687    0.8063 H   0  0  0  0  0  0  0  0  0  0  0  0
    6.3557   -1.2633    3.4537 H   0  0  0  0  0  0  0  0  0  0  0  0
    4.5102    0.6358    3.0256 H   0  0  0  0  0  0  0  0  0  0  0  0
    5.3565    2.1616    3.1204 H   0  0  0  0  0  0  0  0  0  0  0  0
    5.6583    0.9197    4.3118 H   0  0  0  0  0  0  0  0  0  0  0  0
    6.6454    2.1113    0.9358 H   0  0  0  0  0  0  0  0  0  0  0  0
    5.2821    1.0344    0.7495 H   0  0  0  0  0  0  0  0  0  0  0  0
    6.8781    0.5155    0.2629 H   0  0  0  0  0  0  0  0  0  0  0  0
    5.4306   -1.2905    0.7424 H   0  0  0  0  0  0  0  0  0  0  0  0
  1  2  2  0  0  0  0
  2  3  1  0  0  0  0
  2  4  1  0  0  0  0
  4  5  1  0  0  0  0
  4  6  1  0  0  0  0
  4 35  1  0  0  0  0
  5  7  1  0  0  0  0
  5  8  1  0  0  0  0
  5 36  1  0  0  0  0
  6  9  1  0  0  0  0
  6 37  1  0  0  0  0
  6 38  1  0  0  0  0
  7 10  1  0  0  0  0
  7 11  1  0  0  0  0
  7 12  1  0  0  0  0
  8 13  1  0  0  0  0
  8 39  1  0  0  0  0
  8 40  1  0  0  0  0
  9 14  1  0  0  0  0
  9 41  1  0  0  0  0
  9 42  1  0  0  0  0
 10 15  1  0  0  0  0
 10 16  1  0  0  0  0
 10 13  1  0  0  0  0
 11 17  1  0  0  0  0
 11 43  1  0  0  0  0
 11 44  1  0  0  0  0
 12 45  1  0  0  0  0
 12 46  1  0  0  0  0
 12 47  1  0  0  0  0
 13 48  1  0  0  0  0
 13 49  1  0  0  0  0
 14 18  2  0  0  0  0
 14 19  1  0  0  0  0
 15 20  2  0  0  0  0
 15 21  1  0  0  0  0
 16 50  1  0  0  0  0
 16 51  1  0  0  0  0
 16 52  1  0  0  0  0
 17 20  1  0  0  0  0
 17 53  1  0  0  0  0
 17 54  1  0  0  0  0
 19 22  2  0  0  0  0
 19 23  1  0  0  0  0
 20 24  1  0  0  0  0
 21 25  1  0  0  0  0
 21 55  1  0  0  0  0
 21 56  1  0  0  0  0
 22 57  1  0  0  0  0
 22 58  1  0  0  0  0
 23 59  1  0  0  0  0
 23 60  1  0  0  0  0
 23 61  1  0  0  0  0
 24 26  1  0  0  0  0
 24 27  1  0  0  0  0
 24 28  1  0  0  0  0
 25 26  1  0  0  0  0
 25 62  1  0  0  0  0
 25 63  1  0  0  0  0
 26 29  1  0  0  0  0
 26 64  1  0  0  0  0
 27 30  1  0  0  0  0
 27 65  1  0  0  0  0
 27 66  1  0  0  0  0
 28 67  1  0  0  0  0
 28 68  1  0  0  0  0
 28 69  1  0  0  0  0
 29 31  1  0  0  0  0
 29 32  1  0  0  0  0
 29 33  1  0  0  0  0
 30 31  1  0  0  0  0
 30 70  1  0  0  0  0
 30 71  1  0  0  0  0
 31 34  1  0  0  0  0
 31 72  1  0  0  0  0
 32 73  1  0  0  0  0
 32 74  1  0  0  0  0
 32 75  1  0  0  0  0
 33 76  1  0  0  0  0
 33 77  1  0  0  0  0
 33 78  1  0  0  0  0
 34 79  1  0  0  0  0
M  CHG  1   3  -1
M  END
>  <Code-name>
143

>  <Compound>
chagabusone A

>  <Specie>
Inonotus obliquus

>  <Reference>
GrÃ¼ndemann (2020)

>  <Organism>
Antitumoral Activity

>  <Smiles>
C[C@@](CC1)([C@](C)(CC2)[C@H]1[C@H](CCC(C(C)=C)=O)C(O)=O)C(CC1)=C2[C@@](C)(CC2)[C@@H]1C(C)(C)[C@H]2O

>  <MMFF94 Energy>
103.16

>  <Total Molweight>
470.691

>  <Molweight>
470.691

>  <Monoisotopic Mass>
470.339610

>  <cLogP>
6.159

>  <cLogS>
-5.747

>  <H-Acceptors>
4

>  <H-Donors>
2

>  <Total Surface Area>
356.17

>  <Relative PSA>
0.14678

>  <Polar Surface Area>
74.6

>  <Druglikeness>
-19.786

>  <Mutagenic>
none

>  <Tumorigenic>
none

>  <Reproductive Effective>
high

>  <Irritant>
low

>  <Nasty Functions>


>  <Shape Index>
0.47059

>  <Molecular Flexibility>
0.32618

>  <Molecular Complexity>
1.0054

>  <Fragments>
1

>  <Non-H Atoms>
34

>  <Non-C/H Atoms>
4

>  <Metal-Atoms>
0

>  <Electronegative Atoms>
4

>  <Stereo Centers>
7

>  <Rotatable Bonds>
6

>  <Rings Closures>
4

>  <Small Rings>
4

>  <Aromatic Rings>
0

>  <Aromatic Atoms>
0

>  <sp3-Atoms>
26

>  <Symmetric atoms>
1

>  <Amides>
0

>  <Amines>
0

>  <Alkyl-Amines>
0

>  <Aromatic Amines>
0

>  <Aromatic Nitrogens>
0

>  <Basic Nitrogens>
0

>  <Acidic Oxygens>
1

>  <Stereo Configuration>
this enantiomer

> <Gold.Version>
5.8.1

> <Gold.Id.Protein>
ID_2|Prot_COX2_5IKQ_Alig|mol2

> <Gold.Goldscore.Fitness>
-47.8851

> <Gold.Goldscore.Internal.Vdw>
-21.3687

> <Gold.Goldscore.Internal.Torsion>
-13.8064

> <Gold.Goldscore.External.Vdw>
-30.4604

> <Gold.Goldscore.Internal.HBond>
0.0000

> <Gold.Goldscore.External.HBond>
0.3831

> <Gold.Goldscore.Internal.Correction>
-28.7901

> <Gold.Goldscore.Hbonds>
donor molecule, donor type, donor heavy atom, donor atom, acceptor molecule, acceptor atom, score
      P1  H  1377  1389       L1     3  0.04

> <Gold.Goldscore.Internal.Vdw.Weighted>
-21.3687

> <Gold.Goldscore.Internal.Torsion.Weighted>
-13.8064

> <Gold.Goldscore.External.Vdw.Weighted>
-41.8831

> <Gold.Goldscore.Internal.HBond.Weighted>
0.0000

> <Gold.Goldscore.External.HBond.Weighted>
0.3831

> <Gold.Goldscore.Internal.Correction.Weighted>
-28.7901

> <Gold.Protein.RotatedTorsions>
[ 5077 5068 5067 5065 ] final  178.72 input  179.94 | X-H torsion
[ 5157 5152 5151 5148 ] final  127.12 input -179.92 | X-H torsion
[ 5185 5176 5175 5173 ] final   28.33 input -179.99 | X-H torsion
[ 5712 5703 5702 5700 ] final -114.51 input  180.00 | X-H torsion
[ 8036 8031 8030 8027 ] final  -68.00 input -179.94 | X-H torsion
[ 2749 2745 2743 2740 ] final   48.72 input  -60.05 | X-H torsion
[ 1366 1361 1360 1357 ] final -152.09 input  -60.09 | X-H torsion
[ 2556 2551 2550 2547 ] final  112.74 input   59.97 | X-H torsion

> <Gold.Protein.ActiveResidues>
 PRO86   VAL89   HIS90   LEU93   THR94   ILE112  MET113  TYR115  VAL116  LEU117 
 THR118  SER119  ARG120  SER121  LEU123  ILE124  GLN192  SER194  PHE198  PHE201 
 ALA202  GLN203  PHE205  THR206  PHE209  PHE210  VAL228  ILE341  ILE343  VAL344 
 ILE345  GLU346  ASP347  TYR348  VAL349  GLN350  HIS351  LEU352  SER353  GLY354 
 TYR355  PHE357  LEU359  LYS360  GLU380  PHE381  ASN382  THR383  LEU384  TYR385 
 HIS386  TRP387  LEU390  VAL434  LEU507  ARG513  ALA516  ILE517  PHE518  GLY519 
 GLU520  THR521  MET522  VAL523  GLU524  VAL525  GLY526  ALA527  PRO528  PHE529 
 SER530  LEU531  LYS532  GLY533  LEU534  MET535  COH609 

> <Gold.Protein.RotatedAtoms>
   18.7377    6.9809    3.2097 H   0  0  0  0  0  0  0  0  0  0  0  0  # atno 1366 bound_to 1361
    4.9692   -9.9802    6.7810 H   0  0  0  0  0  0  0  0  0  0  0  0  # atno 2556 bound_to 2551
   -4.1159    0.2796    0.3063 H   0  0  0  0  0  0  0  0  0  0  0  0  # atno 2749 bound_to 2745
    1.9220   -1.5623    3.6831 H   0  0  0  0  0  0  0  0  0  0  0  0  # atno 5077 bound_to 5068
   12.8948   -1.8659    9.1697 H   0  0  0  0  0  0  0  0  0  0  0  0  # atno 5157 bound_to 5152
   15.6693   -1.0934    4.6467 H   0  0  0  0  0  0  0  0  0  0  0  0  # atno 5185 bound_to 5176
    1.9086    0.3662    2.6198 H   0  0  0  0  0  0  0  0  0  0  0  0  # atno 5712 bound_to 5703
    6.0614    5.0102    3.6403 H   0  0  0  0  0  0  0  0  0  0  0  0  # atno 8036 bound_to 8031
    0.5015   -1.8360    4.0939 LP  0  0  0  0  0  0  0  0  0  0  0  0  # atno 8267 bound_to 5068
    1.6814   -2.9618    4.1778 LP  0  0  0  0  0  0  0  0  0  0  0  0  # atno 8268 bound_to 5068
   11.9657   -3.0449    9.2788 LP  0  0  0  0  0  0  0  0  0  0  0  0  # atno 8279 bound_to 5152
   11.4456   -1.4982    9.3416 LP  0  0  0  0  0  0  0  0  0  0  0  0  # atno 8280 bound_to 5152
   16.7144   -0.0840    5.0309 LP  0  0  0  0  0  0  0  0  0  0  0  0  # atno 8281 bound_to 5176
   15.1262    0.2804    4.9231 LP  0  0  0  0  0  0  0  0  0  0  0  0  # atno 8282 bound_to 5176
    3.2144   -0.3384    2.3808 LP  0  0  0  0  0  0  0  0  0  0  0  0  # atno 8283 bound_to 5703
    1.8664   -1.1135    2.8798 LP  0  0  0  0  0  0  0  0  0  0  0  0  # atno 8284 bound_to 5703
    5.6920    3.5547    3.5697 LP  0  0  0  0  0  0  0  0  0  0  0  0  # atno 8309 bound_to 8031
    4.6474    4.7538    3.1990 LP  0  0  0  0  0  0  0  0  0  0  0  0  # atno 8310 bound_to 8031
   -3.4334   -0.3235    1.5038 LP  0  0  0  0  0  0  0  0  0  0  0  0  # atno 8323 bound_to 2745
   -2.8481   -0.4642   -0.0142 LP  0  0  0  0  0  0  0  0  0  0  0  0  # atno 8324 bound_to 2745
   18.2117    6.7278    1.8229 LP  0  0  0  0  0  0  0  0  0  0  0  0  # atno 8335 bound_to 1361
   17.5712    7.8489    2.8226 LP  0  0  0  0  0  0  0  0  0  0  0  0  # atno 8336 bound_to 1361
    5.1280   -9.6770    8.2463 LP  0  0  0  0  0  0  0  0  0  0  0  0  # atno 8342 bound_to 2551
    4.4578   -8.6258    7.1915 LP  0  0  0  0  0  0  0  0  0  0  0  0  # atno 8343 bound_to 2551

