
144|LMW3_p|sdf|144|dock3
  -GOLD-   6 92213 93D 1   1.00000     0.00000

 44 45  0  0  0  0  0  0  0  0  2 V2000
    8.3235   -2.7456    3.0184 O   0  0  0  0  0  0  0  0  0  0  0  0
    8.8865   -2.0178    2.2180 C   0  0  0  0  0  0  0  0  0  0  0  0
    9.1594   -2.4557    0.9740 O   0  5  0  0  0  0  0  0  0  0  0  0
    9.3481   -0.5873    2.4494 C   0  0  2  0  0  0  0  0  0  0  0  0
   10.3675   -0.4748    3.6491 C   0  0  2  0  0  0  0  0  0  0  0  0
    8.1182    0.3469    2.6051 C   0  0  1  0  0  0  0  0  0  0  0  0
   10.8084    1.0346    3.7347 C   0  0  2  0  0  0  0  0  0  0  0  0
   11.6140   -1.3492    3.3528 C   0  0  0  0  0  0  0  0  0  0  0  0
    9.6988   -0.9976    4.9457 C   0  0  0  0  0  0  0  0  0  0  0  0
    8.5490    1.7983    2.8803 C   0  0  2  0  0  0  0  0  0  0  0  0
    7.2211    0.3127    1.3538 C   0  0  0  0  0  0  0  0  0  0  0  0
   12.0648    1.3624    4.6288 C   0  0  0  0  0  0  0  0  0  0  0  0
    9.5880    1.9365    3.9941 C   0  0  0  0  0  0  0  0  0  0  0  0
   12.7881   -1.0866    4.2971 C   0  0  0  0  0  0  0  0  0  0  0  0
    7.4132    2.5920    3.2214 O   0  0  0  0  0  0  0  0  0  0  0  0
   13.2212    0.3787    4.2808 C   0  0  1  0  0  0  0  0  0  0  0  0
   11.7939    1.3233    6.1471 C   0  0  0  0  0  0  0  0  0  0  0  0
   12.5398    2.8121    4.3261 C   0  0  0  0  0  0  0  0  0  0  0  0
   13.7328    0.6411    2.9703 O   0  0  0  0  0  0  0  0  0  0  0  0
    9.8947   -0.2623    1.5888 H   0  0  0  0  0  0  0  0  0  0  0  0
    7.5599   -0.0172    3.4421 H   0  0  0  0  0  0  0  0  0  0  0  0
   11.2001    1.2687    2.7669 H   0  0  0  0  0  0  0  0  0  0  0  0
   11.9351   -1.1513    2.3515 H   0  0  0  0  0  0  0  0  0  0  0  0
   11.3213   -2.3687    3.4939 H   0  0  0  0  0  0  0  0  0  0  0  0
    8.7397   -0.5378    5.0627 H   0  0  0  0  0  0  0  0  0  0  0  0
   10.3148   -0.7568    5.7868 H   0  0  0  0  0  0  0  0  0  0  0  0
    9.5801   -2.0591    4.8828 H   0  0  0  0  0  0  0  0  0  0  0  0
    9.0046    2.1393    1.9742 H   0  0  0  0  0  0  0  0  0  0  0  0
    6.4017    0.9884    1.4839 H   0  0  0  0  0  0  0  0  0  0  0  0
    6.8462   -0.6792    1.2107 H   0  0  0  0  0  0  0  0  0  0  0  0
    7.7921    0.6052    0.4975 H   0  0  0  0  0  0  0  0  0  0  0  0
    9.9116    2.9551    4.0446 H   0  0  0  0  0  0  0  0  0  0  0  0
    9.1363    1.6370    4.9167 H   0  0  0  0  0  0  0  0  0  0  0  0
   13.6157   -1.6945    3.9963 H   0  0  0  0  0  0  0  0  0  0  0  0
   12.4721   -1.3262    5.2909 H   0  0  0  0  0  0  0  0  0  0  0  0
    7.0100    2.2472    4.0334 H   0  0  0  0  0  0  0  0  0  0  0  0
   13.9620    0.5383    5.0362 H   0  0  0  0  0  0  0  0  0  0  0  0
   12.4167    2.0408    6.6392 H   0  0  0  0  0  0  0  0  0  0  0  0
   12.0109    0.3453    6.5231 H   0  0  0  0  0  0  0  0  0  0  0  0
   10.7661    1.5566    6.3321 H   0  0  0  0  0  0  0  0  0  0  0  0
   13.5187    2.9588    4.7324 H   0  0  0  0  0  0  0  0  0  0  0  0
   11.8611    3.5099    4.7703 H   0  0  0  0  0  0  0  0  0  0  0  0
   12.5664    2.9651    3.2674 H   0  0  0  0  0  0  0  0  0  0  0  0
   14.5192    0.0949    2.8148 H   0  0  0  0  0  0  0  0  0  0  0  0
  1  2  2  0  0  0  0
  2  3  1  0  0  0  0
  2  4  1  0  0  0  0
  4  5  1  0  0  0  0
  4  6  1  0  0  0  0
  4 20  1  0  0  0  0
  5  7  1  0  0  0  0
  5  8  1  0  0  0  0
  5  9  1  0  0  0  0
  6 10  1  0  0  0  0
  6 11  1  0  0  0  0
  6 21  1  0  0  0  0
  7 12  1  0  0  0  0
  7 13  1  0  0  0  0
  7 22  1  0  0  0  0
  8 14  1  0  0  0  0
  8 23  1  0  0  0  0
  8 24  1  0  0  0  0
  9 25  1  0  0  0  0
  9 26  1  0  0  0  0
  9 27  1  0  0  0  0
 10 15  1  0  0  0  0
 10 13  1  0  0  0  0
 10 28  1  0  0  0  0
 11 29  1  0  0  0  0
 11 30  1  0  0  0  0
 11 31  1  0  0  0  0
 12 16  1  0  0  0  0
 12 17  1  0  0  0  0
 12 18  1  0  0  0  0
 13 32  1  0  0  0  0
 13 33  1  0  0  0  0
 14 16  1  0  0  0  0
 14 34  1  0  0  0  0
 14 35  1  0  0  0  0
 15 36  1  0  0  0  0
 16 19  1  0  0  0  0
 16 37  1  0  0  0  0
 17 38  1  0  0  0  0
 17 39  1  0  0  0  0
 17 40  1  0  0  0  0
 18 41  1  0  0  0  0
 18 42  1  0  0  0  0
 18 43  1  0  0  0  0
 19 44  1  0  0  0  0
M  CHG  1   3  -1
M  END
>  <Code-name>
144

>  <Compound>
Fomeffic acid

>  <Specie>
Fomitopsis officinalis

>  <Reference>
GrÃ¼ndemann (2020)

>  <Organism>
Antitumoral Activity

>  <Smiles>
C[C@H]([C@H](C[C@@H](C1(C)C)[C@]2(C)CC[C@H]1O)O)[C@@H]2C(O)=O

>  <MMFF94 Energy>
36.613

>  <Total Molweight>
270.367

>  <Molweight>
270.367

>  <Monoisotopic Mass>
270.183110

>  <cLogP>
1.4718

>  <cLogS>
-2.607

>  <H-Acceptors>
4

>  <H-Donors>
3

>  <Total Surface Area>
196.94

>  <Relative PSA>
0.26577

>  <Polar Surface Area>
77.76

>  <Druglikeness>
-0.40662

>  <Mutagenic>
none

>  <Tumorigenic>
none

>  <Reproductive Effective>
none

>  <Irritant>
none

>  <Nasty Functions>


>  <Shape Index>
0.42105

>  <Molecular Flexibility>
0.2495

>  <Molecular Complexity>
0.86725

>  <Fragments>
1

>  <Non-H Atoms>
19

>  <Non-C/H Atoms>
4

>  <Metal-Atoms>
0

>  <Electronegative Atoms>
4

>  <Stereo Centers>
6

>  <Rotatable Bonds>
1

>  <Rings Closures>
2

>  <Small Rings>
2

>  <Aromatic Rings>
0

>  <Aromatic Atoms>
0

>  <sp3-Atoms>
17

>  <Symmetric atoms>
1

>  <Amides>
0

>  <Amines>
0

>  <Alkyl-Amines>
0

>  <Aromatic Amines>
0

>  <Aromatic Nitrogens>
0

>  <Basic Nitrogens>
0

>  <Acidic Oxygens>
1

>  <Stereo Configuration>
this enantiomer

> <Gold.Version>
5.8.1

> <Gold.Id.Protein>
ID_2|Prot_COX2_5IKQ_Alig|mol2

> <Gold.Goldscore.Fitness>
26.6453

> <Gold.Goldscore.Internal.Vdw>
-16.9537

> <Gold.Goldscore.Internal.Torsion>
-3.8242

> <Gold.Goldscore.External.Vdw>
20.2616

> <Gold.Goldscore.Internal.HBond>
0.0000

> <Gold.Goldscore.External.HBond>
0.0000

> <Gold.Goldscore.Internal.Correction>
-19.5636

> <Gold.Goldscore.Internal.Vdw.Weighted>
-16.9537

> <Gold.Goldscore.Internal.Torsion.Weighted>
-3.8242

> <Gold.Goldscore.External.Vdw.Weighted>
27.8597

> <Gold.Goldscore.Internal.HBond.Weighted>
0.0000

> <Gold.Goldscore.External.HBond.Weighted>
0.0000

> <Gold.Goldscore.Internal.Correction.Weighted>
-19.5636

> <Gold.Protein.RotatedTorsions>
[ 5077 5068 5067 5065 ] final  -61.26 input  179.94 | X-H torsion
[ 5157 5152 5151 5148 ] final  -60.54 input -179.92 | X-H torsion
[ 5185 5176 5175 5173 ] final    2.96 input -179.99 | X-H torsion
[ 5712 5703 5702 5700 ] final  115.14 input  180.00 | X-H torsion
[ 8036 8031 8030 8027 ] final  131.77 input -179.94 | X-H torsion
[ 2749 2745 2743 2740 ] final  126.79 input  -60.05 | X-H torsion
[ 1366 1361 1360 1357 ] final  176.46 input  -60.09 | X-H torsion
[ 2556 2551 2550 2547 ] final  -63.56 input   59.97 | X-H torsion

> <Gold.Protein.ActiveResidues>
 PRO86   VAL89   HIS90   LEU93   THR94   ILE112  MET113  TYR115  VAL116  LEU117 
 THR118  SER119  ARG120  SER121  LEU123  ILE124  GLN192  SER194  PHE198  PHE201 
 ALA202  GLN203  PHE205  THR206  PHE209  PHE210  VAL228  ILE341  ILE343  VAL344 
 ILE345  GLU346  ASP347  TYR348  VAL349  GLN350  HIS351  LEU352  SER353  GLY354 
 TYR355  PHE357  LEU359  LYS360  GLU380  PHE381  ASN382  THR383  LEU384  TYR385 
 HIS386  TRP387  LEU390  VAL434  LEU507  ARG513  ALA516  ILE517  PHE518  GLY519 
 GLU520  THR521  MET522  VAL523  GLU524  VAL525  GLY526  ALA527  PRO528  PHE529 
 SER530  LEU531  LYS532  GLY533  LEU534  MET535  COH609 

> <Gold.Protein.RotatedAtoms>
   18.8244    6.7288    2.8742 H   0  0  0  0  0  0  0  0  0  0  0  0  # atno 1366 bound_to 1361
    4.7198   -9.0002    7.9949 H   0  0  0  0  0  0  0  0  0  0  0  0  # atno 2556 bound_to 2551
   -3.3445   -0.1027   -0.1921 H   0  0  0  0  0  0  0  0  0  0  0  0  # atno 2749 bound_to 2745
    1.6465   -2.8049    4.1828 H   0  0  0  0  0  0  0  0  0  0  0  0  # atno 5077 bound_to 5068
   11.3749   -2.2708    9.2940 H   0  0  0  0  0  0  0  0  0  0  0  0  # atno 5157 bound_to 5152
   16.0125   -1.0976    4.6914 H   0  0  0  0  0  0  0  0  0  0  0  0  # atno 5185 bound_to 5176
    3.0421   -0.4791    2.4034 H   0  0  0  0  0  0  0  0  0  0  0  0  # atno 5712 bound_to 5703
    5.1676    3.7755    3.3400 H   0  0  0  0  0  0  0  0  0  0  0  0  # atno 8036 bound_to 8031
    2.0107   -1.4761    3.5803 LP  0  0  0  0  0  0  0  0  0  0  0  0  # atno 8267 bound_to 5068
    0.5020   -1.8336    4.0930 LP  0  0  0  0  0  0  0  0  0  0  0  0  # atno 8268 bound_to 5068
   12.4596   -1.2281    9.2587 LP  0  0  0  0  0  0  0  0  0  0  0  0  # atno 8279 bound_to 5152
   12.7694   -2.8308    9.2131 LP  0  0  0  0  0  0  0  0  0  0  0  0  # atno 8280 bound_to 5152
   16.4998    0.2635    5.1020 LP  0  0  0  0  0  0  0  0  0  0  0  0  # atno 8281 bound_to 5176
   14.9287   -0.0619    4.7983 LP  0  0  0  0  0  0  0  0  0  0  0  0  # atno 8282 bound_to 5176
    1.7295   -1.0113    2.9059 LP  0  0  0  0  0  0  0  0  0  0  0  0  # atno 8283 bound_to 5703
    1.9909    0.5740    2.6143 LP  0  0  0  0  0  0  0  0  0  0  0  0  # atno 8284 bound_to 5703
    5.0223    5.2717    3.3249 LP  0  0  0  0  0  0  0  0  0  0  0  0  # atno 8309 bound_to 8031
    6.3895    4.5182    3.8040 LP  0  0  0  0  0  0  0  0  0  0  0  0  # atno 8310 bound_to 8031
   -4.2937    0.2521    0.9198 LP  0  0  0  0  0  0  0  0  0  0  0  0  # atno 8323 bound_to 2745
   -2.9117   -0.5820    1.1667 LP  0  0  0  0  0  0  0  0  0  0  0  0  # atno 8324 bound_to 2745
   17.8372    7.0749    1.7926 LP  0  0  0  0  0  0  0  0  0  0  0  0  # atno 8335 bound_to 1361
   17.8420    7.8034    3.2541 LP  0  0  0  0  0  0  0  0  0  0  0  0  # atno 8336 bound_to 1361
    4.5987   -9.1794    6.5058 LP  0  0  0  0  0  0  0  0  0  0  0  0  # atno 8342 bound_to 2551
    5.2855  -10.2958    7.4797 LP  0  0  0  0  0  0  0  0  0  0  0  0  # atno 8343 bound_to 2551

