
145|LMW3_p|sdf|145|dock4
  -GOLD-   6 92213123D 1   1.00000     0.00000

102107  0  0  0  0  0  0  0  0  2 V2000
    7.6943   -1.6143   -1.5968 O   0  0  0  0  0  0  0  0  0  0  0  0
    7.7729   -1.2898   -0.4227 C   0  0  0  0  0  0  0  0  0  0  0  0
    8.8833   -1.4980    0.3407 O   0  0  0  0  0  0  0  0  0  0  0  0
    6.6965   -0.6090    0.3739 C   0  0  2  0  0  0  0  0  0  0  0  0
    8.6861   -0.9101    1.6304 C   0  0  2  0  0  0  0  0  0  0  0  0
    7.1560   -0.9039    1.7888 C   0  0  1  0  0  0  0  0  0  0  0  0
    5.3114   -1.1589    0.0821 C   0  0  0  0  0  0  0  0  0  0  0  0
    9.1201    0.4471    1.6524 O   0  0  0  0  0  0  0  0  0  0  0  0
    9.4022   -1.7574    2.6884 C   0  0  0  0  0  0  0  0  0  0  0  0
    6.6822    0.0956    2.6889 O   0  0  0  0  0  0  0  0  0  0  0  0
   10.5000    0.6144    1.3521 C   0  0  0  0  0  0  0  0  0  0  0  0
    9.3535   -1.2364    4.1394 C   0  0  2  0  0  0  0  0  0  0  0  0
   11.1633    1.3172    2.5239 C   0  0  0  0  0  0  0  0  0  0  0  0
   10.2921   -0.0350    4.5670 C   0  0  2  0  0  0  0  0  0  0  0  0
    9.3629   -2.4550    5.0890 C   0  0  0  0  0  0  0  0  0  0  0  0
   11.5833    0.4829    3.7929 C   0  0  2  0  0  0  0  0  0  0  0  0
   10.7743   -0.1469    6.0270 C   0  0  0  0  0  0  0  0  0  0  0  0
   12.2332    1.5323    4.8467 C   0  0  1  0  0  0  0  0  0  0  0  0
   12.5973   -0.6628    3.4269 C   0  0  2  0  0  0  0  0  0  0  0  0
   11.8911    0.8438    6.1837 C   0  0  0  0  0  0  0  0  0  0  0  0
   13.8102    1.8104    4.6982 C   0  0  1  0  0  0  0  0  0  0  0  0
   11.4399    2.8752    4.9391 C   0  0  0  0  0  0  0  0  0  0  0  0
   12.2334   -1.9338    3.9702 O   0  0  0  0  0  0  0  0  0  0  0  0
   14.0737   -0.4709    3.7899 C   0  0  0  0  0  0  0  0  0  0  0  0
   12.4270    1.0896    7.3908 C   0  0  0  0  0  0  0  0  0  0  0  0
   14.5990    0.9547    3.6379 C   0  0  1  0  0  0  0  0  0  0  0  0
   14.2160    3.2965    4.5694 C   0  0  0  0  0  0  0  0  0  0  0  0
   14.2926    1.5328    2.3537 O   0  0  0  0  0  0  0  0  0  0  0  0
   16.2015    1.1138    3.9440 C   0  0  2  0  0  0  0  0  0  0  0  0
   15.7230    3.5253    4.7109 C   0  0  0  0  0  0  0  0  0  0  0  0
   14.5266    0.8119    1.1489 C   0  0  0  0  0  0  0  0  0  0  0  0
   16.5695    2.6438    3.7727 C   0  0  1  0  0  0  0  0  0  0  0  0
   17.0875    0.2963    2.9613 C   0  0  0  0  0  0  0  0  0  0  0  0
   16.5293    0.5732    5.3701 C   0  0  0  0  0  0  0  0  0  0  0  0
   13.4603    1.2024    0.1422 C   0  0  0  0  0  0  0  0  0  0  0  0
   18.1068    3.0167    3.7747 C   0  0  0  0  0  0  0  0  0  0  0  0
   18.5891    0.5910    3.0593 C   0  0  0  0  0  0  0  0  0  0  0  0
   18.8925    2.0713    2.8132 C   0  0  1  0  0  0  0  0  0  0  0  0
   18.2781    4.4748    3.2566 C   0  0  0  0  0  0  0  0  0  0  0  0
   18.7658    2.9950    5.1705 C   0  0  0  0  0  0  0  0  0  0  0  0
   18.5218    2.3888    1.4488 O   0  0  0  0  0  0  0  0  0  0  0  0
   19.5377    2.5049    0.5469 C   0  0  0  0  0  0  0  0  0  0  0  0
   20.6450    2.0015    0.6699 O   0  0  0  0  0  0  0  0  0  0  0  0
   19.0666    3.2645   -0.6529 C   0  0  0  0  0  0  0  0  0  0  0  0
   18.6765    4.6676   -0.3318 C   0  0  0  0  0  0  0  0  0  0  0  0
   19.2070    5.4182    0.4685 O   0  0  0  0  0  0  0  0  0  0  0  0
   17.5548    5.0495   -0.9778 O   0  5  0  0  0  0  0  0  0  0  0  0
    6.5858    0.4329    0.1566 H   0  0  0  0  0  0  0  0  0  0  0  0
    6.7873   -1.8184    2.2042 H   0  0  0  0  0  0  0  0  0  0  0  0
    5.3754   -2.2128   -0.0916 H   0  0  0  0  0  0  0  0  0  0  0  0
    4.9123   -0.6779   -0.7864 H   0  0  0  0  0  0  0  0  0  0  0  0
    4.6706   -0.9736    0.9187 H   0  0  0  0  0  0  0  0  0  0  0  0
   10.4311   -1.8302    2.4040 H   0  0  0  0  0  0  0  0  0  0  0  0
    8.8774   -2.6897    2.7057 H   0  0  0  0  0  0  0  0  0  0  0  0
    6.9430    0.9720    2.3652 H   0  0  0  0  0  0  0  0  0  0  0  0
   10.6082    1.2062    0.4673 H   0  0  0  0  0  0  0  0  0  0  0  0
   10.9586   -0.3382    1.1870 H   0  0  0  0  0  0  0  0  0  0  0  0
    8.4320   -0.6988    4.2214 H   0  0  0  0  0  0  0  0  0  0  0  0
   10.4834    2.0724    2.8592 H   0  0  0  0  0  0  0  0  0  0  0  0
   12.0974    1.6494    2.1214 H   0  0  0  0  0  0  0  0  0  0  0  0
    9.5424    0.6794    4.2977 H   0  0  0  0  0  0  0  0  0  0  0  0
    8.6209   -3.1585    4.7738 H   0  0  0  0  0  0  0  0  0  0  0  0
    9.1474   -2.1319    6.0860 H   0  0  0  0  0  0  0  0  0  0  0  0
   10.3269   -2.9186    5.0647 H   0  0  0  0  0  0  0  0  0  0  0  0
   11.1281   -1.1371    6.2248 H   0  0  0  0  0  0  0  0  0  0  0  0
    9.9789    0.0546    6.7138 H   0  0  0  0  0  0  0  0  0  0  0  0
   12.5166   -0.6179    2.3609 H   0  0  0  0  0  0  0  0  0  0  0  0
   14.1237    1.4565    5.6580 H   0  0  0  0  0  0  0  0  0  0  0  0
   11.6632    3.4807    4.0857 H   0  0  0  0  0  0  0  0  0  0  0  0
   11.7229    3.3960    5.8298 H   0  0  0  0  0  0  0  0  0  0  0  0
   10.3904    2.6684    4.9649 H   0  0  0  0  0  0  0  0  0  0  0  0
   12.8566   -2.6089    3.6590 H   0  0  0  0  0  0  0  0  0  0  0  0
   14.6559   -1.1078    3.1571 H   0  0  0  0  0  0  0  0  0  0  0  0
   14.1581   -0.7099    4.8294 H   0  0  0  0  0  0  0  0  0  0  0  0
   12.1093    0.5556    8.2148 H   0  0  0  0  0  0  0  0  0  0  0  0
   13.1563    1.8124    7.4940 H   0  0  0  0  0  0  0  0  0  0  0  0
   13.7144    3.8531    5.3332 H   0  0  0  0  0  0  0  0  0  0  0  0
   13.9366    3.6181    3.5879 H   0  0  0  0  0  0  0  0  0  0  0  0
   16.0044    3.3123    5.7211 H   0  0  0  0  0  0  0  0  0  0  0  0
   15.9132    4.5435    4.4425 H   0  0  0  0  0  0  0  0  0  0  0  0
   14.4745   -0.2395    1.3410 H   0  0  0  0  0  0  0  0  0  0  0  0
   15.4978    1.0439    0.7644 H   0  0  0  0  0  0  0  0  0  0  0  0
   16.3021    2.8673    2.7611 H   0  0  0  0  0  0  0  0  0  0  0  0
   16.7689    0.5154    1.9637 H   0  0  0  0  0  0  0  0  0  0  0  0
   16.9628   -0.7330    3.2255 H   0  0  0  0  0  0  0  0  0  0  0  0
   16.1254   -0.4115    5.4798 H   0  0  0  0  0  0  0  0  0  0  0  0
   16.0970    1.2199    6.1049 H   0  0  0  0  0  0  0  0  0  0  0  0
   17.5904    0.5403    5.5039 H   0  0  0  0  0  0  0  0  0  0  0  0
   13.2240    2.2396    0.2572 H   0  0  0  0  0  0  0  0  0  0  0  0
   12.5810    0.6157    0.3083 H   0  0  0  0  0  0  0  0  0  0  0  0
   13.8241    1.0272   -0.8487 H   0  0  0  0  0  0  0  0  0  0  0  0
   19.1060    0.0049    2.3284 H   0  0  0  0  0  0  0  0  0  0  0  0
   18.9139    0.3437    4.0484 H   0  0  0  0  0  0  0  0  0  0  0  0
   19.9359    2.2261    2.9927 H   0  0  0  0  0  0  0  0  0  0  0  0
   17.6235    4.6375    2.4261 H   0  0  0  0  0  0  0  0  0  0  0  0
   19.2911    4.6267    2.9473 H   0  0  0  0  0  0  0  0  0  0  0  0
   18.0377    5.1625    4.0404 H   0  0  0  0  0  0  0  0  0  0  0  0
   19.5238    2.2402    5.1954 H   0  0  0  0  0  0  0  0  0  0  0  0
   18.0245    2.7806    5.9117 H   0  0  0  0  0  0  0  0  0  0  0  0
   19.2060    3.9493    5.3719 H   0  0  0  0  0  0  0  0  0  0  0  0
   18.2184    2.7597   -1.0658 H   0  0  0  0  0  0  0  0  0  0  0  0
   19.8799    3.3070   -1.3470 H   0  0  0  0  0  0  0  0  0  0  0  0
  1  2  2  0  0  0  0
  2  3  1  0  0  0  0
  2  4  1  0  0  0  0
  4  6  1  0  0  0  0
  4  7  1  0  0  0  0
  4 48  1  0  0  0  0
  5  3  1  0  0  0  0
  5  8  1  0  0  0  0
  5  9  1  0  0  0  0
  5  6  1  0  0  0  0
  6 10  1  0  0  0  0
  6 49  1  0  0  0  0
  7 50  1  0  0  0  0
  7 51  1  0  0  0  0
  7 52  1  0  0  0  0
  8 11  1  0  0  0  0
  9 12  1  0  0  0  0
  9 53  1  0  0  0  0
  9 54  1  0  0  0  0
 10 55  1  0  0  0  0
 11 13  1  0  0  0  0
 11 56  1  0  0  0  0
 11 57  1  0  0  0  0
 12 14  1  0  0  0  0
 12 15  1  0  0  0  0
 12 58  1  0  0  0  0
 13 59  1  0  0  0  0
 13 60  1  0  0  0  0
 14 17  1  0  0  0  0
 14 16  1  0  0  0  0
 14 61  1  0  0  0  0
 15 62  1  0  0  0  0
 15 63  1  0  0  0  0
 15 64  1  0  0  0  0
 16 13  1  0  0  0  0
 16 18  1  0  0  0  0
 16 19  1  0  0  0  0
 17 20  1  0  0  0  0
 17 65  1  0  0  0  0
 17 66  1  0  0  0  0
 18 21  1  0  0  0  0
 18 22  1  0  0  0  0
 18 20  1  0  0  0  0
 19 23  1  0  0  0  0
 19 24  1  0  0  0  0
 19 67  1  0  0  0  0
 20 25  2  0  0  0  0
 21 26  1  0  0  0  0
 21 27  1  0  0  0  0
 21 68  1  0  0  0  0
 22 69  1  0  0  0  0
 22 70  1  0  0  0  0
 22 71  1  0  0  0  0
 23 72  1  0  0  0  0
 24 26  1  0  0  0  0
 24 73  1  0  0  0  0
 24 74  1  0  0  0  0
 25 75  1  0  0  0  0
 25 76  1  0  0  0  0
 26 28  1  0  0  0  0
 26 29  1  0  0  0  0
 27 30  1  0  0  0  0
 27 77  1  0  0  0  0
 27 78  1  0  0  0  0
 28 31  1  0  0  0  0
 29 32  1  0  0  0  0
 29 33  1  0  0  0  0
 29 34  1  0  0  0  0
 30 32  1  0  0  0  0
 30 79  1  0  0  0  0
 30 80  1  0  0  0  0
 31 35  1  0  0  0  0
 31 81  1  0  0  0  0
 31 82  1  0  0  0  0
 32 36  1  0  0  0  0
 32 83  1  0  0  0  0
 33 37  1  0  0  0  0
 33 84  1  0  0  0  0
 33 85  1  0  0  0  0
 34 86  1  0  0  0  0
 34 87  1  0  0  0  0
 34 88  1  0  0  0  0
 35 89  1  0  0  0  0
 35 90  1  0  0  0  0
 35 91  1  0  0  0  0
 36 38  1  0  0  0  0
 36 39  1  0  0  0  0
 36 40  1  0  0  0  0
 37 38  1  0  0  0  0
 37 92  1  0  0  0  0
 37 93  1  0  0  0  0
 38 41  1  0  0  0  0
 38 94  1  0  0  0  0
 39 95  1  0  0  0  0
 39 96  1  0  0  0  0
 39 97  1  0  0  0  0
 40 98  1  0  0  0  0
 40 99  1  0  0  0  0
 40100  1  0  0  0  0
 41 42  1  0  0  0  0
 42 43  2  0  0  0  0
 42 44  1  0  0  0  0
 44 45  1  0  0  0  0
 44101  1  0  0  0  0
 44102  1  0  0  0  0
 45 46  2  0  0  0  0
 45 47  1  0  0  0  0
M  CHG  1  47  -1
M  END
>  <Code-name>
145

>  <Compound>
lactone fomefficinin

>  <Specie>
Fomitopsis officinalis

>  <Reference>
GrÃ¼ndemann (2020)

>  <Organism>
Antitumoral Activity

>  <Smiles>
CCO[C@](C[C@H]([C@@]12[C@H](C3)[C@H](C)C[C@]([C@H]([C@@H]4C)O)(OC4=O)OCC2)O)([C@@H](CC2)[C@]1(C)C3=C)[C@@](C)(CC1)[C@@H]2C(C)(C)[C@@H]1OC(CC(O)=O)=O

>  <MMFF94 Energy>
165.31

>  <Total Molweight>
660.842

>  <Molweight>
660.842

>  <Monoisotopic Mass>
660.387350

>  <cLogP>
4.3473

>  <cLogS>
-5.899

>  <H-Acceptors>
10

>  <H-Donors>
3

>  <Total Surface Area>
467.19

>  <Relative PSA>
0.25347

>  <Polar Surface Area>
148.82

>  <Druglikeness>
-15.929

>  <Mutagenic>
none

>  <Tumorigenic>
none

>  <Reproductive Effective>
none

>  <Irritant>
none

>  <Nasty Functions>


>  <Shape Index>
0.42553

>  <Molecular Flexibility>
0.23949

>  <Molecular Complexity>
1.1053

>  <Fragments>
1

>  <Non-H Atoms>
47

>  <Non-C/H Atoms>
10

>  <Metal-Atoms>
0

>  <Electronegative Atoms>
10

>  <Stereo Centers>
13

>  <Rotatable Bonds>
6

>  <Rings Closures>
6

>  <Small Rings>
5

>  <Aromatic Rings>
0

>  <Aromatic Atoms>
0

>  <sp3-Atoms>
39

>  <Symmetric atoms>
1

>  <Amides>
0

>  <Amines>
0

>  <Alkyl-Amines>
0

>  <Aromatic Amines>
0

>  <Aromatic Nitrogens>
0

>  <Basic Nitrogens>
0

>  <Acidic Oxygens>
1

>  <Stereo Configuration>
this enantiomer

> <Gold.Version>
5.8.1

> <Gold.Id.Protein>
ID_2|Prot_COX2_5IKQ_Alig|mol2

> <Gold.Goldscore.Fitness>
-298.1788

> <Gold.Goldscore.Internal.Vdw>
-67.1895

> <Gold.Goldscore.Internal.Torsion>
-14.4694

> <Gold.Goldscore.External.Vdw>
-199.5148

> <Gold.Goldscore.Internal.HBond>
0.0000

> <Gold.Goldscore.External.HBond>
2.6504

> <Gold.Goldscore.Internal.Correction>
-55.1626

> <Gold.Goldscore.Hbonds>
donor molecule, donor type, donor heavy atom, donor atom, acceptor molecule, acceptor atom, score
      P1  H  1361  1366       L1    46  0.44

> <Gold.Goldscore.Internal.Vdw.Weighted>
-67.1895

> <Gold.Goldscore.Internal.Torsion.Weighted>
-14.4694

> <Gold.Goldscore.External.Vdw.Weighted>
-274.3329

> <Gold.Goldscore.Internal.HBond.Weighted>
0.0000

> <Gold.Goldscore.External.HBond.Weighted>
2.6504

> <Gold.Goldscore.Internal.Correction.Weighted>
-55.1626

> <Gold.Protein.RotatedTorsions>
[ 5077 5068 5067 5065 ] final -144.07 input  179.94 | X-H torsion
[ 5157 5152 5151 5148 ] final  -40.86 input -179.92 | X-H torsion
[ 5185 5176 5175 5173 ] final    6.80 input -179.99 | X-H torsion
[ 5712 5703 5702 5700 ] final   47.84 input  180.00 | X-H torsion
[ 8036 8031 8030 8027 ] final  106.09 input -179.94 | X-H torsion
[ 2749 2745 2743 2740 ] final -134.90 input  -60.05 | X-H torsion
[ 1366 1361 1360 1357 ] final  111.90 input  -60.09 | X-H torsion
[ 2556 2551 2550 2547 ] final  -14.88 input   59.97 | X-H torsion

> <Gold.Protein.ActiveResidues>
 PRO86   VAL89   HIS90   LEU93   THR94   ILE112  MET113  TYR115  VAL116  LEU117 
 THR118  SER119  ARG120  SER121  LEU123  ILE124  GLN192  SER194  PHE198  PHE201 
 ALA202  GLN203  PHE205  THR206  PHE209  PHE210  VAL228  ILE341  ILE343  VAL344 
 ILE345  GLU346  ASP347  TYR348  VAL349  GLN350  HIS351  LEU352  SER353  GLY354 
 TYR355  PHE357  LEU359  LYS360  GLU380  PHE381  ASN382  THR383  LEU384  TYR385 
 HIS386  TRP387  LEU390  VAL434  LEU507  ARG513  ALA516  ILE517  PHE518  GLY519 
 GLU520  THR521  MET522  VAL523  GLU524  VAL525  GLY526  ALA527  PRO528  PHE529 
 SER530  LEU531  LYS532  GLY533  LEU534  MET535  COH609 

> <Gold.Protein.RotatedAtoms>
   18.4814    6.6748    2.1048 H   0  0  0  0  0  0  0  0  0  0  0  0  # atno 1366 bound_to 1361
    5.0082   -9.5668    8.1373 H   0  0  0  0  0  0  0  0  0  0  0  0  # atno 2556 bound_to 2551
   -2.8525   -0.5199    0.8139 H   0  0  0  0  0  0  0  0  0  0  0  0  # atno 2749 bound_to 2745
    2.1625   -1.9961    3.7706 H   0  0  0  0  0  0  0  0  0  0  0  0  # atno 5077 bound_to 5068
   11.4706   -2.5233    9.2828 H   0  0  0  0  0  0  0  0  0  0  0  0  # atno 5157 bound_to 5152
   15.9613   -1.1065    4.6820 H   0  0  0  0  0  0  0  0  0  0  0  0  # atno 5185 bound_to 5176
    2.4675   -1.0872    2.6538 H   0  0  0  0  0  0  0  0  0  0  0  0  # atno 5712 bound_to 5703
    4.9156    4.0023    3.2511 H   0  0  0  0  0  0  0  0  0  0  0  0  # atno 8036 bound_to 8031
    0.7984   -1.3692    3.8563 LP  0  0  0  0  0  0  0  0  0  0  0  0  # atno 8267 bound_to 5068
    1.0965   -2.9091    4.3105 LP  0  0  0  0  0  0  0  0  0  0  0  0  # atno 8268 bound_to 5068
   12.1425   -1.1766    9.2863 LP  0  0  0  0  0  0  0  0  0  0  0  0  # atno 8279 bound_to 5152
   12.9722   -2.5804    9.1989 LP  0  0  0  0  0  0  0  0  0  0  0  0  # atno 8280 bound_to 5152
   16.5420    0.2170    5.0943 LP  0  0  0  0  0  0  0  0  0  0  0  0  # atno 8281 bound_to 5176
   14.9480   -0.0048    4.8173 LP  0  0  0  0  0  0  0  0  0  0  0  0  # atno 8282 bound_to 5176
    1.4412   -0.0076    2.8539 LP  0  0  0  0  0  0  0  0  0  0  0  0  # atno 8283 bound_to 5703
    2.9689    0.3000    2.3658 LP  0  0  0  0  0  0  0  0  0  0  0  0  # atno 8284 bound_to 5703
    5.3959    5.4124    3.4533 LP  0  0  0  0  0  0  0  0  0  0  0  0  # atno 8309 bound_to 8031
    6.3181    4.1055    3.7824 LP  0  0  0  0  0  0  0  0  0  0  0  0  # atno 8310 bound_to 8031
   -3.6460    0.0406   -0.3348 LP  0  0  0  0  0  0  0  0  0  0  0  0  # atno 8323 bound_to 2745
   -4.1487    0.1291    1.2163 LP  0  0  0  0  0  0  0  0  0  0  0  0  # atno 8324 bound_to 2745
   17.4861    7.7473    2.4559 LP  0  0  0  0  0  0  0  0  0  0  0  0  # atno 8335 bound_to 1361
   18.6035    7.1955    3.5112 LP  0  0  0  0  0  0  0  0  0  0  0  0  # atno 8336 bound_to 1361
    4.4543   -8.6631    7.0693 LP  0  0  0  0  0  0  0  0  0  0  0  0  # atno 8342 bound_to 2551
    5.0848  -10.1343    6.7458 LP  0  0  0  0  0  0  0  0  0  0  0  0  # atno 8343 bound_to 2551

