
151|LMW3_p|sdf|151|dock14
  -GOLD-   6 92213403D 1   1.00000     0.00000

 56 56  0  0  0  0  0  0  0  0  1 V2000
    5.9005    1.1614    4.0410 O   0  0  0  0  0  0  0  0  0  0  0  0
    6.2738    0.6027    2.8486 C   0  0  0  0  0  0  0  0  0  0  0  0
    7.6167    0.3852    2.4833 C   0  0  0  0  0  0  0  0  0  0  0  0
    5.2196    0.2603    2.0027 C   0  0  0  0  0  0  0  0  0  0  0  0
    7.8801   -0.1527    1.1982 C   0  0  0  0  0  0  0  0  0  0  0  0
    8.7562    0.7258    3.4266 C   0  0  0  0  0  0  0  0  0  0  0  0
    5.4967   -0.2863    0.7599 C   0  0  0  0  0  0  0  0  0  0  0  0
    6.8083   -0.4894    0.3528 C   0  0  0  0  0  0  0  0  0  0  0  0
    9.2814   -0.3982    0.7046 C   0  0  0  0  0  0  0  0  0  0  0  0
    9.6466   -0.4584    3.6996 C   0  0  0  0  0  0  0  0  0  0  0  0
    4.5000   -0.6352   -0.1031 O   0  0  0  0  0  0  0  0  0  0  0  0
   10.9937   -0.4910    3.7706 C   0  0  0  0  0  0  0  0  0  0  0  0
   11.7055   -1.7925    4.1030 C   0  0  0  0  0  0  0  0  0  0  0  0
   11.9015    0.6945    3.5773 C   0  0  0  0  0  0  0  0  0  0  0  0
   10.9231   -3.0286    3.6453 C   0  0  0  0  0  0  0  0  0  0  0  0
   11.7936   -4.2569    3.6355 C   0  0  0  0  0  0  0  0  0  0  0  0
   11.3977   -5.5435    3.5607 C   0  0  0  0  0  0  0  0  0  0  0  0
   12.4234   -6.6635    3.5921 C   0  0  0  0  0  0  0  0  0  0  0  0
    9.9675   -5.9855    3.4012 C   0  0  0  0  0  0  0  0  0  0  0  0
   12.7757   -7.1013    5.0183 C   0  0  0  0  0  0  0  0  0  0  0  0
   13.8509   -8.1553    5.0196 C   0  0  0  0  0  0  0  0  0  0  0  0
   14.1504   -9.0250    6.0042 C   0  0  0  0  0  0  0  0  0  0  0  0
   13.4748   -9.0771    7.3469 C   0  0  0  0  0  0  0  0  0  0  0  0
   15.2444  -10.0447    5.8217 C   0  0  0  0  0  0  0  0  0  0  0  0
    5.0632    1.5738    4.1234 H   0  0  0  0  0  0  0  0  0  0  0  0
    4.2429    0.4123    2.2993 H   0  0  0  0  0  0  0  0  0  0  0  0
    8.3450    1.0679    4.3534 H   0  0  0  0  0  0  0  0  0  0  0  0
    9.3519    1.4823    2.9602 H   0  0  0  0  0  0  0  0  0  0  0  0
    6.9984   -0.8910   -0.5786 H   0  0  0  0  0  0  0  0  0  0  0  0
    9.6117   -1.3614    1.0331 H   0  0  0  0  0  0  0  0  0  0  0  0
    9.9339    0.3548    1.0946 H   0  0  0  0  0  0  0  0  0  0  0  0
    9.2943   -0.3623   -0.3647 H   0  0  0  0  0  0  0  0  0  0  0  0
    9.1655   -1.3586    3.8515 H   0  0  0  0  0  0  0  0  0  0  0  0
    4.6910   -0.7667   -1.0109 H   0  0  0  0  0  0  0  0  0  0  0  0
   11.8421   -1.8469    5.1628 H   0  0  0  0  0  0  0  0  0  0  0  0
   12.6406   -1.7912    3.5828 H   0  0  0  0  0  0  0  0  0  0  0  0
   12.2006    0.7511    2.5515 H   0  0  0  0  0  0  0  0  0  0  0  0
   12.7677    0.5851    4.1959 H   0  0  0  0  0  0  0  0  0  0  0  0
   11.3813    1.5897    3.8471 H   0  0  0  0  0  0  0  0  0  0  0  0
   10.5501   -2.8583    2.6570 H   0  0  0  0  0  0  0  0  0  0  0  0
   10.1188   -3.1914    4.3319 H   0  0  0  0  0  0  0  0  0  0  0  0
   12.8113   -4.0953    3.6926 H   0  0  0  0  0  0  0  0  0  0  0  0
   13.3153   -6.3249    3.1075 H   0  0  0  0  0  0  0  0  0  0  0  0
   11.9972   -7.5071    3.0904 H   0  0  0  0  0  0  0  0  0  0  0  0
    9.8810   -6.6080    2.5352 H   0  0  0  0  0  0  0  0  0  0  0  0
    9.3394   -5.1267    3.2873 H   0  0  0  0  0  0  0  0  0  0  0  0
    9.6654   -6.5359    4.2677 H   0  0  0  0  0  0  0  0  0  0  0  0
   11.8993   -7.4974    5.4874 H   0  0  0  0  0  0  0  0  0  0  0  0
   13.1396   -6.2484    5.5523 H   0  0  0  0  0  0  0  0  0  0  0  0
   14.4265   -8.2191    4.1654 H   0  0  0  0  0  0  0  0  0  0  0  0
   14.1981   -8.9076    8.1169 H   0  0  0  0  0  0  0  0  0  0  0  0
   13.0269  -10.0392    7.4837 H   0  0  0  0  0  0  0  0  0  0  0  0
   12.7187   -8.3215    7.3952 H   0  0  0  0  0  0  0  0  0  0  0  0
   15.6790   -9.9315    4.8505 H   0  0  0  0  0  0  0  0  0  0  0  0
   14.8345  -11.0285    5.9165 H   0  0  0  0  0  0  0  0  0  0  0  0
   15.9966   -9.8982    6.5685 H   0  0  0  0  0  0  0  0  0  0  0  0
  1  2  1  0  0  0  0
  1 25  1  0  0  0  0
  2  3  2  0  0  0  0
  2  4  1  0  0  0  0
  3  5  1  0  0  0  0
  3  6  1  0  0  0  0
  4  7  2  0  0  0  0
  4 26  1  0  0  0  0
  5  8  2  0  0  0  0
  5  9  1  0  0  0  0
  6 10  1  0  0  0  0
  6 27  1  0  0  0  0
  6 28  1  0  0  0  0
  7 11  1  0  0  0  0
  7  8  1  0  0  0  0
  8 29  1  0  0  0  0
  9 30  1  0  0  0  0
  9 31  1  0  0  0  0
  9 32  1  0  0  0  0
 10 12  2  0  0  0  0
 10 33  1  0  0  0  0
 11 34  1  0  0  0  0
 12 13  1  0  0  0  0
 12 14  1  0  0  0  0
 13 15  1  0  0  0  0
 13 35  1  0  0  0  0
 13 36  1  0  0  0  0
 14 37  1  0  0  0  0
 14 38  1  0  0  0  0
 14 39  1  0  0  0  0
 15 16  1  0  0  0  0
 15 40  1  0  0  0  0
 15 41  1  0  0  0  0
 16 17  2  0  0  0  0
 16 42  1  0  0  0  0
 17 18  1  0  0  0  0
 17 19  1  0  0  0  0
 18 20  1  0  0  0  0
 18 43  1  0  0  0  0
 18 44  1  0  0  0  0
 19 45  1  0  0  0  0
 19 46  1  0  0  0  0
 19 47  1  0  0  0  0
 20 21  1  0  0  0  0
 20 48  1  0  0  0  0
 20 49  1  0  0  0  0
 21 22  2  0  0  0  0
 21 50  1  0  0  0  0
 22 23  1  0  0  0  0
 22 24  1  0  0  0  0
 23 51  1  0  0  0  0
 23 52  1  0  0  0  0
 23 53  1  0  0  0  0
 24 54  1  0  0  0  0
 24 55  1  0  0  0  0
 24 56  1  0  0  0  0
M  END
>  <Code-name>
151

>  <Compound>
Neogrifolin

>  <Specie>
Albatrellus flettii

>  <Reference>
Mehreen Zeb and Chow H. Lee, 2021

>  <Organism>
Antibacterial Activity

>  <Smiles>
CC(C)=CCC/C(/C)=C/CC/C(/C)=C/Cc(c(C)cc(O)c1)c1O

>  <MMFF94 Energy>
48.772

>  <Total Molweight>
328.494

>  <Molweight>
328.494

>  <Monoisotopic Mass>
328.240230

>  <cLogP>
7.6782

>  <cLogS>
-4.259

>  <H-Acceptors>
2

>  <H-Donors>
2

>  <Total Surface Area>
290.19

>  <Relative PSA>
0.090286

>  <Polar Surface Area>
40.46

>  <Druglikeness>
-3.3766

>  <Mutagenic>
none

>  <Tumorigenic>
none

>  <Reproductive Effective>
none

>  <Irritant>
none

>  <Nasty Functions>


>  <Shape Index>
0.70833

>  <Molecular Flexibility>
0.61667

>  <Molecular Complexity>
0.69969

>  <Fragments>
1

>  <Non-H Atoms>
24

>  <Non-C/H Atoms>
2

>  <Metal-Atoms>
0

>  <Electronegative Atoms>
2

>  <Stereo Centers>
0

>  <Rotatable Bonds>
8

>  <Rings Closures>
1

>  <Small Rings>
1

>  <Aromatic Rings>
1

>  <Aromatic Atoms>
6

>  <sp3-Atoms>
12

>  <Symmetric atoms>
1

>  <Amides>
0

>  <Amines>
0

>  <Alkyl-Amines>
0

>  <Aromatic Amines>
0

>  <Aromatic Nitrogens>
0

>  <Basic Nitrogens>
0

>  <Acidic Oxygens>
0

>  <Stereo Configuration>


> <Gold.Version>
5.8.1

> <Gold.Id.Protein>
ID_2|Prot_COX2_5IKQ_Alig|mol2

> <Gold.Goldscore.Fitness>
72.5595

> <Gold.Goldscore.Internal.Vdw>
-12.0398

> <Gold.Goldscore.Internal.Torsion>
-6.6387

> <Gold.Goldscore.External.Vdw>
55.2746

> <Gold.Goldscore.Internal.HBond>
0.0000

> <Gold.Goldscore.External.HBond>
1.4861

> <Gold.Goldscore.Internal.Correction>
-13.7493

> <Gold.Goldscore.Hbonds>
donor molecule, donor type, donor heavy atom, donor atom, acceptor molecule, acceptor atom, score
      P1  H  8031  8036       L1     1  0.74

> <Gold.Goldscore.Internal.Vdw.Weighted>
-12.0398

> <Gold.Goldscore.Internal.Torsion.Weighted>
-6.6387

> <Gold.Goldscore.External.Vdw.Weighted>
76.0026

> <Gold.Goldscore.Internal.HBond.Weighted>
0.0000

> <Gold.Goldscore.External.HBond.Weighted>
1.4861

> <Gold.Goldscore.Internal.Correction.Weighted>
-13.7493

> <Gold.Protein.RotatedTorsions>
[ 5077 5068 5067 5065 ] final  176.86 input  179.94 | X-H torsion
[ 5157 5152 5151 5148 ] final   56.57 input -179.92 | X-H torsion
[ 5185 5176 5175 5173 ] final   76.45 input -179.99 | X-H torsion
[ 5712 5703 5702 5700 ] final   29.03 input  180.00 | X-H torsion
[ 8036 8031 8030 8027 ] final  169.56 input -179.94 | X-H torsion
[ 2749 2745 2743 2740 ] final   94.19 input  -60.05 | X-H torsion
[ 1366 1361 1360 1357 ] final  171.64 input  -60.09 | X-H torsion
[ 2556 2551 2550 2547 ] final  163.17 input   59.97 | X-H torsion

> <Gold.Protein.ActiveResidues>
 PRO86   VAL89   HIS90   LEU93   THR94   ILE112  MET113  TYR115  VAL116  LEU117 
 THR118  SER119  ARG120  SER121  LEU123  ILE124  GLN192  SER194  PHE198  PHE201 
 ALA202  GLN203  PHE205  THR206  PHE209  PHE210  VAL228  ILE341  ILE343  VAL344 
 ILE345  GLU346  ASP347  TYR348  VAL349  GLN350  HIS351  LEU352  SER353  GLY354 
 TYR355  PHE357  LEU359  LYS360  GLU380  PHE381  ASN382  THR383  LEU384  TYR385 
 HIS386  TRP387  LEU390  VAL434  LEU507  ARG513  ALA516  ILE517  PHE518  GLY519 
 GLU520  THR521  MET522  VAL523  GLU524  VAL525  GLY526  ALA527  PRO528  PHE529 
 SER530  LEU531  LYS532  GLY533  LEU534  MET535  COH609 

> <Gold.Protein.RotatedAtoms>
   18.8221    6.7009    2.8141 H   0  0  0  0  0  0  0  0  0  0  0  0  # atno 1366 bound_to 1361
    4.6700   -9.4040    6.6020 H   0  0  0  0  0  0  0  0  0  0  0  0  # atno 2556 bound_to 2551
   -3.7279    0.1122   -0.1343 H   0  0  0  0  0  0  0  0  0  0  0  0  # atno 2749 bound_to 2745
    1.9032   -1.5449    3.6819 H   0  0  0  0  0  0  0  0  0  0  0  0  # atno 5077 bound_to 5068
   12.6343   -2.7412    9.1813 H   0  0  0  0  0  0  0  0  0  0  0  0  # atno 5157 bound_to 5152
   15.1498   -0.7175    4.6852 H   0  0  0  0  0  0  0  0  0  0  0  0  # atno 5185 bound_to 5176
    2.2206   -1.0941    2.7269 H   0  0  0  0  0  0  0  0  0  0  0  0  # atno 5712 bound_to 5703
    5.6446    3.6993    3.5058 H   0  0  0  0  0  0  0  0  0  0  0  0  # atno 8036 bound_to 8031
    0.4959   -1.8639    4.1050 LP  0  0  0  0  0  0  0  0  0  0  0  0  # atno 8267 bound_to 5068
    1.7094   -2.9547    4.1680 LP  0  0  0  0  0  0  0  0  0  0  0  0  # atno 8268 bound_to 5068
   11.2211   -2.2524    9.3516 LP  0  0  0  0  0  0  0  0  0  0  0  0  # atno 8279 bound_to 5152
   12.5018   -1.2439    9.2550 LP  0  0  0  0  0  0  0  0  0  0  0  0  # atno 8280 bound_to 5152
   16.6440   -0.8177    4.8105 LP  0  0  0  0  0  0  0  0  0  0  0  0  # atno 8281 bound_to 5176
   15.8203    0.5629    5.0972 LP  0  0  0  0  0  0  0  0  0  0  0  0  # atno 8282 bound_to 5176
    1.5728    0.2610    2.7790 LP  0  0  0  0  0  0  0  0  0  0  0  0  # atno 8283 bound_to 5703
    3.1336    0.0397    2.3530 LP  0  0  0  0  0  0  0  0  0  0  0  0  # atno 8284 bound_to 5703
    4.6603    4.7945    3.2031 LP  0  0  0  0  0  0  0  0  0  0  0  0  # atno 8309 bound_to 8031
    6.1791    5.0869    3.7269 LP  0  0  0  0  0  0  0  0  0  0  0  0  # atno 8310 bound_to 8031
   -4.0377    0.0490    1.3366 LP  0  0  0  0  0  0  0  0  0  0  0  0  # atno 8323 bound_to 2745
   -2.7085   -0.6362    0.6806 LP  0  0  0  0  0  0  0  0  0  0  0  0  # atno 8324 bound_to 2745
   17.7868    7.1331    1.8113 LP  0  0  0  0  0  0  0  0  0  0  0  0  # atno 8335 bound_to 1361
   17.8951    7.7786    3.3074 LP  0  0  0  0  0  0  0  0  0  0  0  0  # atno 8336 bound_to 1361
    5.2930  -10.2345    7.6912 LP  0  0  0  0  0  0  0  0  0  0  0  0  # atno 8342 bound_to 2551
    4.6506   -8.7576    7.9607 LP  0  0  0  0  0  0  0  0  0  0  0  0  # atno 8343 bound_to 2551

