
153|LMW3_p|sdf|153|dock3
  -GOLD-   6 92216503D 1   1.00000     0.00000

 75 78  0  0  0  0  0  0  0  0  2 V2000
   11.1376   -2.0148    2.9242 O   0  0  0  0  0  0  0  0  0  0  0  0
   11.3718   -0.8653    3.3065 C   0  0  0  0  0  0  0  0  0  0  0  0
   10.2684    0.1689    3.2640 C   0  0  0  0  0  0  0  0  0  0  0  0
   12.7555   -0.5021    3.8334 C   0  0  0  0  0  0  0  0  0  0  0  0
   10.4688    1.3728    3.8500 C   0  0  0  0  0  0  0  0  0  0  0  0
    8.9711   -0.2289    2.5631 C   0  0  1  0  0  0  0  0  0  0  0  0
   12.9701    1.0132    3.8681 C   0  0  1  0  0  0  0  0  0  0  0  0
   11.7499    1.6572    4.6198 C   0  0  1  0  0  0  0  0  0  0  0  0
    9.4104    2.4438    3.8407 C   0  0  0  0  0  0  0  0  0  0  0  0
    8.5841   -1.5362    2.9922 O   0  0  0  0  0  0  0  0  0  0  0  0
    7.7774    0.7176    2.9331 C   0  0  1  0  0  0  0  0  0  0  0  0
    9.2099   -0.2598    1.0384 C   0  0  0  0  0  0  0  0  0  0  0  0
   14.1672    1.5286    4.7261 C   0  0  1  0  0  0  0  0  0  0  0  0
   13.1275    1.5181    2.3978 C   0  0  0  0  0  0  0  0  0  0  0  0
   12.2362    3.1086    4.7650 C   0  0  0  0  0  0  0  0  0  0  0  0
   11.4934    1.1153    6.0601 C   0  0  0  0  0  0  0  0  0  0  0  0
    8.2528    2.1830    2.8766 C   0  0  0  0  0  0  0  0  0  0  0  0
    6.4707    0.4544    2.0938 C   0  0  0  0  0  0  0  0  0  0  0  0
    7.9583   -0.6094    0.2514 C   0  0  0  0  0  0  0  0  0  0  0  0
   15.6118    1.4493    4.1589 C   0  0  1  0  0  0  0  0  0  0  0  0
   13.7440    2.9902    5.0533 C   0  0  0  0  0  0  0  0  0  0  0  0
    6.8363    0.3340    0.6100 C   0  0  0  0  0  0  0  0  0  0  0  0
    5.4350    1.5864    2.2759 C   0  0  0  0  0  0  0  0  0  0  0  0
    5.7592   -0.8480    2.5191 C   0  0  0  0  0  0  0  0  0  0  0  0
   16.6867    1.9308    5.1705 C   0  0  0  0  0  0  0  0  0  0  0  0
   15.9714    0.0481    3.6525 C   0  0  0  0  0  0  0  0  0  0  0  0
    6.2288    0.9404   -0.2733 O   0  0  0  0  0  0  0  0  0  0  0  0
   18.0365    2.3152    4.5552 C   0  0  0  0  0  0  0  0  0  0  0  0
   17.8822    3.4450    3.5719 C   0  0  0  0  0  0  0  0  0  0  0  0
   18.3066    3.4995    2.2930 C   0  0  0  0  0  0  0  0  0  0  0  0
   18.9518    2.3375    1.6335 C   0  0  0  0  0  0  0  0  0  0  0  0
   18.1010    4.7254    1.4504 C   0  0  0  0  0  0  0  0  0  0  0  0
   18.6652    1.1617    1.7602 O   0  0  0  0  0  0  0  0  0  0  0  0
   19.9440    2.7204    0.8122 O   0  5  0  0  0  0  0  0  0  0  0  0
   13.4948   -0.9423    3.1974 H   0  0  0  0  0  0  0  0  0  0  0  0
   12.8388   -0.8732    4.8335 H   0  0  0  0  0  0  0  0  0  0  0  0
    9.8730    3.3684    3.5650 H   0  0  0  0  0  0  0  0  0  0  0  0
    8.9889    2.4634    4.8240 H   0  0  0  0  0  0  0  0  0  0  0  0
    8.5789   -1.5699    3.9616 H   0  0  0  0  0  0  0  0  0  0  0  0
    7.4782    0.4938    3.9358 H   0  0  0  0  0  0  0  0  0  0  0  0
    9.9623   -0.9901    0.8254 H   0  0  0  0  0  0  0  0  0  0  0  0
    9.5127    0.7223    0.7407 H   0  0  0  0  0  0  0  0  0  0  0  0
   14.2966    0.8694    5.5589 H   0  0  0  0  0  0  0  0  0  0  0  0
   13.9819    1.0543    1.9510 H   0  0  0  0  0  0  0  0  0  0  0  0
   13.2572    2.5802    2.3974 H   0  0  0  0  0  0  0  0  0  0  0  0
   12.2512    1.2656    1.8383 H   0  0  0  0  0  0  0  0  0  0  0  0
   11.7343    3.5951    5.5752 H   0  0  0  0  0  0  0  0  0  0  0  0
   12.0364    3.6913    3.8902 H   0  0  0  0  0  0  0  0  0  0  0  0
   10.8550    1.7927    6.5877 H   0  0  0  0  0  0  0  0  0  0  0  0
   12.4250    1.0260    6.5788 H   0  0  0  0  0  0  0  0  0  0  0  0
   11.0242    0.1554    6.0017 H   0  0  0  0  0  0  0  0  0  0  0  0
    8.5755    2.4040    1.8807 H   0  0  0  0  0  0  0  0  0  0  0  0
    7.4339    2.8088    3.1643 H   0  0  0  0  0  0  0  0  0  0  0  0
    7.6643   -1.6121    0.4821 H   0  0  0  0  0  0  0  0  0  0  0  0
    8.1675   -0.5214   -0.7942 H   0  0  0  0  0  0  0  0  0  0  0  0
   15.6152    2.1207    3.3258 H   0  0  0  0  0  0  0  0  0  0  0  0
   14.2889    3.6752    4.4379 H   0  0  0  0  0  0  0  0  0  0  0  0
   13.9524    3.2236    6.0765 H   0  0  0  0  0  0  0  0  0  0  0  0
    4.4829    1.2605    1.9125 H   0  0  0  0  0  0  0  0  0  0  0  0
    5.7498    2.4495    1.7273 H   0  0  0  0  0  0  0  0  0  0  0  0
    5.3552    1.8332    3.3140 H   0  0  0  0  0  0  0  0  0  0  0  0
    5.4957   -0.7887    3.5544 H   0  0  0  0  0  0  0  0  0  0  0  0
    6.4150   -1.6793    2.3650 H   0  0  0  0  0  0  0  0  0  0  0  0
    4.8739   -0.9786    1.9325 H   0  0  0  0  0  0  0  0  0  0  0  0
   16.8560    1.1424    5.8737 H   0  0  0  0  0  0  0  0  0  0  0  0
   16.2979    2.8234    5.6143 H   0  0  0  0  0  0  0  0  0  0  0  0
   17.0357   -0.0545    3.6126 H   0  0  0  0  0  0  0  0  0  0  0  0
   15.5625   -0.0933    2.6739 H   0  0  0  0  0  0  0  0  0  0  0  0
   15.5670   -0.6861    4.3176 H   0  0  0  0  0  0  0  0  0  0  0  0
   18.4447    1.4652    4.0495 H   0  0  0  0  0  0  0  0  0  0  0  0
   18.6891    2.6350    5.3406 H   0  0  0  0  0  0  0  0  0  0  0  0
   17.3900    4.2825    3.9202 H   0  0  0  0  0  0  0  0  0  0  0  0
   17.7957    4.4351    0.4668 H   0  0  0  0  0  0  0  0  0  0  0  0
   19.0169    5.2756    1.3918 H   0  0  0  0  0  0  0  0  0  0  0  0
   17.3440    5.3391    1.8922 H   0  0  0  0  0  0  0  0  0  0  0  0
  1  2  2  0  0  0  0
  2  3  1  0  0  0  0
  2  4  1  0  0  0  0
  3  5  2  0  0  0  0
  3  6  1  0  0  0  0
  4  7  1  0  0  0  0
  4 35  1  0  0  0  0
  4 36  1  0  0  0  0
  5  8  1  0  0  0  0
  5  9  1  0  0  0  0
  6 10  1  0  0  0  0
  6 11  1  0  0  0  0
  6 12  1  0  0  0  0
  7 13  1  0  0  0  0
  7 14  1  0  0  0  0
  7  8  1  0  0  0  0
  8 15  1  0  0  0  0
  8 16  1  0  0  0  0
  9 17  1  0  0  0  0
  9 37  1  0  0  0  0
  9 38  1  0  0  0  0
 10 39  1  0  0  0  0
 11 18  1  0  0  0  0
 11 17  1  0  0  0  0
 11 40  1  0  0  0  0
 12 19  1  0  0  0  0
 12 41  1  0  0  0  0
 12 42  1  0  0  0  0
 13 20  1  0  0  0  0
 13 21  1  0  0  0  0
 13 43  1  0  0  0  0
 14 44  1  0  0  0  0
 14 45  1  0  0  0  0
 14 46  1  0  0  0  0
 15 21  1  0  0  0  0
 15 47  1  0  0  0  0
 15 48  1  0  0  0  0
 16 49  1  0  0  0  0
 16 50  1  0  0  0  0
 16 51  1  0  0  0  0
 17 52  1  0  0  0  0
 17 53  1  0  0  0  0
 18 22  1  0  0  0  0
 18 23  1  0  0  0  0
 18 24  1  0  0  0  0
 19 22  1  0  0  0  0
 19 54  1  0  0  0  0
 19 55  1  0  0  0  0
 20 25  1  0  0  0  0
 20 26  1  0  0  0  0
 20 56  1  0  0  0  0
 21 57  1  0  0  0  0
 21 58  1  0  0  0  0
 22 27  2  0  0  0  0
 23 59  1  0  0  0  0
 23 60  1  0  0  0  0
 23 61  1  0  0  0  0
 24 62  1  0  0  0  0
 24 63  1  0  0  0  0
 24 64  1  0  0  0  0
 25 28  1  0  0  0  0
 25 65  1  0  0  0  0
 25 66  1  0  0  0  0
 26 67  1  0  0  0  0
 26 68  1  0  0  0  0
 26 69  1  0  0  0  0
 28 29  1  0  0  0  0
 28 70  1  0  0  0  0
 28 71  1  0  0  0  0
 29 30  2  0  0  0  0
 29 72  1  0  0  0  0
 30 31  1  0  0  0  0
 30 32  1  0  0  0  0
 31 33  2  0  0  0  0
 31 34  1  0  0  0  0
 32 73  1  0  0  0  0
 32 74  1  0  0  0  0
 32 75  1  0  0  0  0
M  CHG  1  34  -1
M  END
>  <Code-name>
153

>  <Compound>
3,11-Dioxolanosta-8,24(Z)-diene-26-oic acid

>  <Specie>
Jahnoporus hirtus

>  <Reference>
Mehreen Zeb and Chow H. Lee, 2024

>  <Organism>
Antibacterial Activity

>  <Smiles>
C[C@H](CC/C=C(/C)\C(O)=O)[C@@H](CC1)[C@@](C)(C2)[C@]1(C)C(CC[C@@H](C(C)(C)C(CC1)=O)[C@@]11O)=C1C2=O

>  <MMFF94 Energy>
69.574

>  <Total Molweight>
470.647

>  <Molweight>
470.647

>  <Monoisotopic Mass>
470.303225

>  <cLogP>
5.4257

>  <cLogS>
-5.004

>  <H-Acceptors>
5

>  <H-Donors>
2

>  <Total Surface Area>
349.62

>  <Relative PSA>
0.18683

>  <Polar Surface Area>
91.67

>  <Druglikeness>
-2.9262

>  <Mutagenic>
none

>  <Tumorigenic>
none

>  <Reproductive Effective>
none

>  <Irritant>
none

>  <Nasty Functions>


>  <Shape Index>
0.5

>  <Molecular Flexibility>
0.33274

>  <Molecular Complexity>
0.99808

>  <Fragments>
1

>  <Non-H Atoms>
34

>  <Non-C/H Atoms>
5

>  <Metal-Atoms>
0

>  <Electronegative Atoms>
5

>  <Stereo Centers>
6

>  <Rotatable Bonds>
5

>  <Rings Closures>
4

>  <Small Rings>
4

>  <Aromatic Rings>
0

>  <Aromatic Atoms>
0

>  <sp3-Atoms>
24

>  <Symmetric atoms>
1

>  <Amides>
0

>  <Amines>
0

>  <Alkyl-Amines>
0

>  <Aromatic Amines>
0

>  <Aromatic Nitrogens>
0

>  <Basic Nitrogens>
0

>  <Acidic Oxygens>
1

>  <Stereo Configuration>
this enantiomer

> <Gold.Version>
5.8.1

> <Gold.Id.Protein>
ID_2|Prot_COX2_5IKQ_Alig|mol2

> <Gold.Goldscore.Fitness>
-29.3402

> <Gold.Goldscore.Internal.Vdw>
-18.3500

> <Gold.Goldscore.Internal.Torsion>
-5.6713

> <Gold.Goldscore.External.Vdw>
-19.7789

> <Gold.Goldscore.Internal.HBond>
0.0000

> <Gold.Goldscore.External.HBond>
0.0000

> <Gold.Goldscore.Internal.Correction>
-21.8771

> <Gold.Goldscore.Internal.Vdw.Weighted>
-18.3500

> <Gold.Goldscore.Internal.Torsion.Weighted>
-5.6713

> <Gold.Goldscore.External.Vdw.Weighted>
-27.1960

> <Gold.Goldscore.Internal.HBond.Weighted>
0.0000

> <Gold.Goldscore.External.HBond.Weighted>
0.0000

> <Gold.Goldscore.Internal.Correction.Weighted>
-21.8771

> <Gold.Protein.RotatedTorsions>
[ 5077 5068 5067 5065 ] final   43.75 input  179.94 | X-H torsion
[ 5157 5152 5151 5148 ] final  149.05 input -179.92 | X-H torsion
[ 5185 5176 5175 5173 ] final   27.84 input -179.99 | X-H torsion
[ 5712 5703 5702 5700 ] final  -10.54 input  180.00 | X-H torsion
[ 8036 8031 8030 8027 ] final  -58.33 input -179.94 | X-H torsion
[ 2749 2745 2743 2740 ] final  145.83 input  -60.05 | X-H torsion
[ 1366 1361 1360 1357 ] final  -47.00 input  -60.09 | X-H torsion
[ 2556 2551 2550 2547 ] final  -64.52 input   59.97 | X-H torsion

> <Gold.Protein.ActiveResidues>
 PRO86   VAL89   HIS90   LEU93   THR94   ILE112  MET113  TYR115  VAL116  LEU117 
 THR118  SER119  ARG120  SER121  LEU123  ILE124  GLN192  SER194  PHE198  PHE201 
 ALA202  GLN203  PHE205  THR206  PHE209  PHE210  VAL228  ILE341  ILE343  VAL344 
 ILE345  GLU346  ASP347  TYR348  VAL349  GLN350  HIS351  LEU352  SER353  GLY354 
 TYR355  PHE357  LEU359  LYS360  GLU380  PHE381  ASN382  THR383  LEU384  TYR385 
 HIS386  TRP387  LEU390  VAL434  LEU507  ARG513  ALA516  ILE517  PHE518  GLY519 
 GLU520  THR521  MET522  VAL523  GLU524  VAL525  GLY526  ALA527  PRO528  PHE529 
 SER530  LEU531  LYS532  GLY533  LEU534  MET535  COH609 

> <Gold.Protein.RotatedAtoms>
   17.7942    7.7713    2.9653 H   0  0  0  0  0  0  0  0  0  0  0  0  # atno 1366 bound_to 1361
    4.7143   -8.9913    7.9870 H   0  0  0  0  0  0  0  0  0  0  0  0  # atno 2556 bound_to 2551
   -3.1344   -0.2352   -0.1107 H   0  0  0  0  0  0  0  0  0  0  0  0  # atno 2749 bound_to 2745
    0.6435   -2.0548    4.1829 H   0  0  0  0  0  0  0  0  0  0  0  0  # atno 5077 bound_to 5068
   12.7467   -1.6046    9.1855 H   0  0  0  0  0  0  0  0  0  0  0  0  # atno 5157 bound_to 5152
   15.6759   -1.0948    4.6471 H   0  0  0  0  0  0  0  0  0  0  0  0  # atno 5185 bound_to 5176
    1.7579   -0.8486    2.8287 H   0  0  0  0  0  0  0  0  0  0  0  0  # atno 5712 bound_to 5703
    5.9689    5.0999    3.6076 H   0  0  0  0  0  0  0  0  0  0  0  0  # atno 8036 bound_to 8031
    1.8987   -2.8781    4.0928 LP  0  0  0  0  0  0  0  0  0  0  0  0  # atno 8267 bound_to 5068
    1.8152   -1.3299    3.5803 LP  0  0  0  0  0  0  0  0  0  0  0  0  # atno 8268 bound_to 5068
   12.3233   -3.0475    9.2484 LP  0  0  0  0  0  0  0  0  0  0  0  0  # atno 8279 bound_to 5152
   11.2650   -1.8082    9.3532 LP  0  0  0  0  0  0  0  0  0  0  0  0  # atno 8280 bound_to 5152
   16.7118   -0.0765    5.0327 LP  0  0  0  0  0  0  0  0  0  0  0  0  # atno 8281 bound_to 5176
   15.1209    0.2748    4.9208 LP  0  0  0  0  0  0  0  0  0  0  0  0  # atno 8282 bound_to 5176
    2.0788    0.5993    2.5852 LP  0  0  0  0  0  0  0  0  0  0  0  0  # atno 8283 bound_to 5703
    3.1828   -0.5932    2.4246 LP  0  0  0  0  0  0  0  0  0  0  0  0  # atno 8284 bound_to 5703
    5.8355    3.6026    3.6190 LP  0  0  0  0  0  0  0  0  0  0  0  0  # atno 8309 bound_to 8031
    4.6149    4.5985    3.1889 LP  0  0  0  0  0  0  0  0  0  0  0  0  # atno 8310 bound_to 8031
   -4.3318    0.3139    0.6161 LP  0  0  0  0  0  0  0  0  0  0  0  0  # atno 8323 bound_to 2745
   -3.1253   -0.4851    1.3729 LP  0  0  0  0  0  0  0  0  0  0  0  0  # atno 8324 bound_to 2745
   18.8822    6.7507    3.1622 LP  0  0  0  0  0  0  0  0  0  0  0  0  # atno 8335 bound_to 1361
   18.0293    6.8805    1.7757 LP  0  0  0  0  0  0  0  0  0  0  0  0  # atno 8336 bound_to 1361
    4.6040   -9.1929    6.4999 LP  0  0  0  0  0  0  0  0  0  0  0  0  # atno 8342 bound_to 2551
    5.2868  -10.2930    7.4951 LP  0  0  0  0  0  0  0  0  0  0  0  0  # atno 8343 bound_to 2551

