
154|LMW3_p|sdf|154|dock1
  -GOLD-   6 92216513D 1   1.00000     0.00000

 23 23  0  0  0  0  0  0  0  0  1 V2000
   13.8929   -3.4079    4.6005 Cl  0  0  0  0  0  0  0  0  0  0  0  0
   12.3490   -2.9163    3.9624 C   0  0  0  0  0  0  0  0  0  0  0  0
   11.3766   -3.8918    3.6676 C   0  0  0  0  0  0  0  0  0  0  0  0
   12.0884   -1.5485    3.7508 C   0  0  0  0  0  0  0  0  0  0  0  0
   11.7153   -5.1993    3.9123 O   0  0  0  0  0  0  0  0  0  0  0  0
   10.1406   -3.4838    3.1554 C   0  0  0  0  0  0  0  0  0  0  0  0
   13.0914   -0.6689    4.0733 O   0  0  0  0  0  0  0  0  0  0  0  0
   10.8442   -1.1670    3.2377 C   0  0  0  0  0  0  0  0  0  0  0  0
   10.8587   -6.2151    3.4096 C   0  0  0  0  0  0  0  0  0  0  0  0
    9.8717   -2.1273    2.9257 C   0  0  0  0  0  0  0  0  0  0  0  0
   12.9990    0.6587    3.5761 C   0  0  0  0  0  0  0  0  0  0  0  0
    8.5282   -1.7008    2.4069 C   0  0  0  0  0  0  0  0  0  0  0  0
    9.4180   -4.1897    2.9442 H   0  0  0  0  0  0  0  0  0  0  0  0
   10.6398   -0.1667    3.0871 H   0  0  0  0  0  0  0  0  0  0  0  0
    9.9028   -6.1430    3.8848 H   0  0  0  0  0  0  0  0  0  0  0  0
   11.2863   -7.1748    3.6123 H   0  0  0  0  0  0  0  0  0  0  0  0
   10.7420   -6.0926    2.3530 H   0  0  0  0  0  0  0  0  0  0  0  0
   12.8397    0.6331    2.5183 H   0  0  0  0  0  0  0  0  0  0  0  0
   13.9076    1.1827    3.7874 H   0  0  0  0  0  0  0  0  0  0  0  0
   12.1801    1.1601    4.0481 H   0  0  0  0  0  0  0  0  0  0  0  0
    7.9000   -2.5598    2.2948 H   0  0  0  0  0  0  0  0  0  0  0  0
    8.6481   -1.2204    1.4583 H   0  0  0  0  0  0  0  0  0  0  0  0
    8.0792   -1.0185    3.0980 H   0  0  0  0  0  0  0  0  0  0  0  0
  1  2  1  0  0  0  0
  2  3  2  0  0  0  0
  2  4  1  0  0  0  0
  3  5  1  0  0  0  0
  3  6  1  0  0  0  0
  4  7  1  0  0  0  0
  4  8  2  0  0  0  0
  5  9  1  0  0  0  0
  6 10  2  0  0  0  0
  6 13  1  0  0  0  0
  7 11  1  0  0  0  0
  8 10  1  0  0  0  0
  8 14  1  0  0  0  0
  9 15  1  0  0  0  0
  9 16  1  0  0  0  0
  9 17  1  0  0  0  0
 10 12  1  0  0  0  0
 11 18  1  0  0  0  0
 11 19  1  0  0  0  0
 11 20  1  0  0  0  0
 12 21  1  0  0  0  0
 12 22  1  0  0  0  0
 12 23  1  0  0  0  0
M  END
>  <Code-name>
154

>  <Compound>
2-Chloro-1,3-dimethoxy-5-methyl benzene (chlorinated orcinol derivatives)

>  <Specie>
Hericium sp.

>  <Reference>
Mehreen Zeb and Chow H. Lee, 2025

>  <Organism>
Antifungal Activity

>  <Smiles>
Cc(cc1OC)cc(OC)c1Cl

>  <MMFF94 Energy>
55.408

>  <Total Molweight>
186.637

>  <Molweight>
186.637

>  <Monoisotopic Mass>
186.044757

>  <cLogP>
2.4695

>  <cLogS>
-2.732

>  <H-Acceptors>
2

>  <H-Donors>
0

>  <Total Surface Area>
145.46

>  <Relative PSA>
0.13749

>  <Polar Surface Area>
18.46

>  <Druglikeness>
-1.9264

>  <Mutagenic>
none

>  <Tumorigenic>
none

>  <Reproductive Effective>
none

>  <Irritant>
none

>  <Nasty Functions>


>  <Shape Index>
0.58333

>  <Molecular Flexibility>
0.037094

>  <Molecular Complexity>
0.652

>  <Fragments>
1

>  <Non-H Atoms>
12

>  <Non-C/H Atoms>
3

>  <Metal-Atoms>
0

>  <Electronegative Atoms>
3

>  <Stereo Centers>
0

>  <Rotatable Bonds>
2

>  <Rings Closures>
1

>  <Small Rings>
1

>  <Aromatic Rings>
1

>  <Aromatic Atoms>
6

>  <sp3-Atoms>
5

>  <Symmetric atoms>
4

>  <Amides>
0

>  <Amines>
0

>  <Alkyl-Amines>
0

>  <Aromatic Amines>
0

>  <Aromatic Nitrogens>
0

>  <Basic Nitrogens>
0

>  <Acidic Oxygens>
0

>  <Stereo Configuration>


> <Gold.Version>
5.8.1

> <Gold.Id.Protein>
ID_2|Prot_COX2_5IKQ_Alig|mol2

> <Gold.Goldscore.Fitness>
40.1626

> <Gold.Goldscore.Internal.Vdw>
-4.5098

> <Gold.Goldscore.Internal.Torsion>
-0.8127

> <Gold.Goldscore.External.Vdw>
28.1977

> <Gold.Goldscore.Internal.HBond>
0.0000

> <Gold.Goldscore.External.HBond>
1.9191

> <Gold.Goldscore.Internal.Correction>
-4.7942

> <Gold.Goldscore.Hbonds>
donor molecule, donor type, donor heavy atom, donor atom, acceptor molecule, acceptor atom, score
      P1  H  5176  5185       L1     7  0.96

> <Gold.Goldscore.Internal.Vdw.Weighted>
-4.5098

> <Gold.Goldscore.Internal.Torsion.Weighted>
-0.8127

> <Gold.Goldscore.External.Vdw.Weighted>
38.7718

> <Gold.Goldscore.Internal.HBond.Weighted>
0.0000

> <Gold.Goldscore.External.HBond.Weighted>
1.9191

> <Gold.Goldscore.Internal.Correction.Weighted>
-4.7942

> <Gold.Protein.RotatedTorsions>
[ 5077 5068 5067 5065 ] final  111.35 input  179.94 | X-H torsion
[ 5157 5152 5151 5148 ] final   73.51 input -179.92 | X-H torsion
[ 5185 5176 5175 5173 ] final   94.63 input -179.99 | X-H torsion
[ 5712 5703 5702 5700 ] final   98.86 input  180.00 | X-H torsion
[ 8036 8031 8030 8027 ] final -127.11 input -179.94 | X-H torsion
[ 2749 2745 2743 2740 ] final   69.67 input  -60.05 | X-H torsion
[ 1366 1361 1360 1357 ] final  -41.72 input  -60.09 | X-H torsion
[ 2556 2551 2550 2547 ] final  105.16 input   59.97 | X-H torsion

> <Gold.Protein.ActiveResidues>
 PRO86   VAL89   HIS90   LEU93   THR94   ILE112  MET113  TYR115  VAL116  LEU117 
 THR118  SER119  ARG120  SER121  LEU123  ILE124  GLN192  SER194  PHE198  PHE201 
 ALA202  GLN203  PHE205  THR206  PHE209  PHE210  VAL228  ILE341  ILE343  VAL344 
 ILE345  GLU346  ASP347  TYR348  VAL349  GLN350  HIS351  LEU352  SER353  GLY354 
 TYR355  PHE357  LEU359  LYS360  GLU380  PHE381  ASN382  THR383  LEU384  TYR385 
 HIS386  TRP387  LEU390  VAL434  LEU507  ARG513  ALA516  ILE517  PHE518  GLY519 
 GLU520  THR521  MET522  VAL523  GLU524  VAL525  GLY526  ALA527  PRO528  PHE529 
 SER530  LEU531  LYS532  GLY533  LEU534  MET535  COH609 

> <Gold.Protein.RotatedAtoms>
   17.7581    7.7746    2.9022 H   0  0  0  0  0  0  0  0  0  0  0  0  # atno 1366 bound_to 1361
    5.0108  -10.0428    6.8535 H   0  0  0  0  0  0  0  0  0  0  0  0  # atno 2556 bound_to 2551
   -3.9735    0.2290    0.0621 H   0  0  0  0  0  0  0  0  0  0  0  0  # atno 2749 bound_to 2745
    1.0802   -1.3763    3.8361 H   0  0  0  0  0  0  0  0  0  0  0  0  # atno 5077 bound_to 5068
   12.7939   -2.5719    9.1698 H   0  0  0  0  0  0  0  0  0  0  0  0  # atno 5157 bound_to 5152
   15.0593   -0.4916    4.7381 H   0  0  0  0  0  0  0  0  0  0  0  0  # atno 5185 bound_to 5176
    2.9768   -0.6872    2.4507 H   0  0  0  0  0  0  0  0  0  0  0  0  # atno 5712 bound_to 5703
    6.2274    4.2529    3.7035 H   0  0  0  0  0  0  0  0  0  0  0  0  # atno 8036 bound_to 8031
    0.8790   -2.7845    4.3237 LP  0  0  0  0  0  0  0  0  0  0  0  0  # atno 8267 bound_to 5068
    2.3119   -2.2361    3.7647 LP  0  0  0  0  0  0  0  0  0  0  0  0  # atno 8268 bound_to 5068
   11.2997   -2.5189    9.3417 LP  0  0  0  0  0  0  0  0  0  0  0  0  # atno 8279 bound_to 5152
   12.2322   -1.1799    9.2786 LP  0  0  0  0  0  0  0  0  0  0  0  0  # atno 8280 bound_to 5152
   16.4602   -1.0356    4.7233 LP  0  0  0  0  0  0  0  0  0  0  0  0  # atno 8281 bound_to 5176
   16.1127    0.5096    5.1210 LP  0  0  0  0  0  0  0  0  0  0  0  0  # atno 8282 bound_to 5176
    1.5572   -0.8085    2.9287 LP  0  0  0  0  0  0  0  0  0  0  0  0  # atno 8283 bound_to 5703
    2.2415    0.6209    2.5347 LP  0  0  0  0  0  0  0  0  0  0  0  0  # atno 8284 bound_to 5703
    4.8510    3.8251    3.2764 LP  0  0  0  0  0  0  0  0  0  0  0  0  # atno 8309 bound_to 8031
    5.2892    5.3920    3.4165 LP  0  0  0  0  0  0  0  0  0  0  0  0  # atno 8310 bound_to 8031
   -3.7297   -0.1508    1.4973 LP  0  0  0  0  0  0  0  0  0  0  0  0  # atno 8323 bound_to 2745
   -2.7223   -0.5763    0.2846 LP  0  0  0  0  0  0  0  0  0  0  0  0  # atno 8324 bound_to 2745
   18.8609    6.8040    3.2274 LP  0  0  0  0  0  0  0  0  0  0  0  0  # atno 8335 bound_to 1361
   18.0938    6.8233    1.7859 LP  0  0  0  0  0  0  0  0  0  0  0  0  # atno 8336 bound_to 1361
    5.0817   -9.5658    8.2788 LP  0  0  0  0  0  0  0  0  0  0  0  0  # atno 8342 bound_to 2551
    4.4543   -8.6620    7.0722 LP  0  0  0  0  0  0  0  0  0  0  0  0  # atno 8343 bound_to 2551

