
155|LMW3_p|sdf|155|dock28
  -GOLD-   6 92216533D 1   1.00000     0.00000

 22 22  0  0  0  0  0  0  0  0  2 V2000
    9.2751   -5.8861    3.5173 Cl  0  0  0  0  0  0  0  0  0  0  0  0
   10.7444   -4.9529    3.5203 C   0  0  0  0  0  0  0  0  0  0  0  0
   11.9638   -5.5759    3.1860 C   0  0  0  0  0  0  0  0  0  0  0  0
   10.6980   -3.5845    3.8570 C   0  0  0  0  0  0  0  0  0  0  0  0
   11.9131   -6.9106    2.8721 O   0  0  0  0  0  0  0  0  0  0  0  0
   13.1367   -4.8169    3.1918 C   0  0  0  0  0  0  0  0  0  0  0  0
    9.4665   -3.0654    4.1679 O   0  0  0  0  0  0  0  0  0  0  0  0
   11.8832   -2.8432    3.8567 C   0  0  0  0  0  0  0  0  0  0  0  0
   12.8718   -7.4180    1.9528 C   0  0  0  0  0  0  0  0  0  0  0  0
   13.0988   -3.4564    3.5253 C   0  0  0  0  0  0  0  0  0  0  0  0
    9.3858   -1.6856    4.4998 C   0  0  0  0  0  0  0  0  0  0  0  0
   14.3773   -2.7032    3.5139 C   0  0  0  0  0  0  0  0  0  0  0  0
   15.4789   -3.1783    3.3101 O   0  0  0  0  0  0  0  0  0  0  0  0
   14.2144   -1.3918    3.7580 O   0  5  0  0  0  0  0  0  0  0  0  0
   14.0362   -5.2607    2.9491 H   0  0  0  0  0  0  0  0  0  0  0  0
   11.8628   -1.8408    4.1013 H   0  0  0  0  0  0  0  0  0  0  0  0
   12.5382   -8.3615    1.5740 H   0  0  0  0  0  0  0  0  0  0  0  0
   13.8105   -7.5452    2.4503 H   0  0  0  0  0  0  0  0  0  0  0  0
   12.9881   -6.7293    1.1423 H   0  0  0  0  0  0  0  0  0  0  0  0
    9.7474   -1.1000    3.6806 H   0  0  0  0  0  0  0  0  0  0  0  0
    9.9817   -1.4919    5.3671 H   0  0  0  0  0  0  0  0  0  0  0  0
    8.3675   -1.4262    4.7015 H   0  0  0  0  0  0  0  0  0  0  0  0
  1  2  1  0  0  0  0
  2  3  2  0  0  0  0
  2  4  1  0  0  0  0
  3  5  1  0  0  0  0
  3  6  1  0  0  0  0
  4  7  1  0  0  0  0
  4  8  2  0  0  0  0
  5  9  1  0  0  0  0
  6 10  2  0  0  0  0
  6 15  1  0  0  0  0
  7 11  1  0  0  0  0
  8 10  1  0  0  0  0
  8 16  1  0  0  0  0
  9 17  1  0  0  0  0
  9 18  1  0  0  0  0
  9 19  1  0  0  0  0
 10 12  1  0  0  0  0
 11 20  1  0  0  0  0
 11 21  1  0  0  0  0
 11 22  1  0  0  0  0
 12 13  2  0  0  0  0
 12 14  1  0  0  0  0
M  CHG  1  14  -1
M  END
>  <Code-name>
155

>  <Compound>
4-Chloro-3,5-dimethoxybenzoic acid

>  <Specie>
Hericium sp.

>  <Reference>
Mehreen Zeb and Chow H. Lee, 2026

>  <Organism>
Antibacterial Activity

>  <Smiles>
COc1cc(C(O)=O)cc(OC)c1Cl

>  <MMFF94 Energy>
36.137

>  <Total Molweight>
216.619

>  <Molweight>
216.619

>  <Monoisotopic Mass>
216.018937

>  <cLogP>
1.6107

>  <cLogS>
-2.401

>  <H-Acceptors>
4

>  <H-Donors>
1

>  <Total Surface Area>
157.3

>  <Relative PSA>
0.29332

>  <Polar Surface Area>
55.76

>  <Druglikeness>
-1.449

>  <Mutagenic>
none

>  <Tumorigenic>
low

>  <Reproductive Effective>
none

>  <Irritant>
none

>  <Nasty Functions>


>  <Shape Index>
0.5

>  <Molecular Flexibility>
0.25255

>  <Molecular Complexity>
0.6593

>  <Fragments>
1

>  <Non-H Atoms>
14

>  <Non-C/H Atoms>
5

>  <Metal-Atoms>
0

>  <Electronegative Atoms>
5

>  <Stereo Centers>
0

>  <Rotatable Bonds>
3

>  <Rings Closures>
1

>  <Small Rings>
1

>  <Aromatic Rings>
1

>  <Aromatic Atoms>
6

>  <sp3-Atoms>
5

>  <Symmetric atoms>
4

>  <Amides>
0

>  <Amines>
0

>  <Alkyl-Amines>
0

>  <Aromatic Amines>
0

>  <Aromatic Nitrogens>
0

>  <Basic Nitrogens>
0

>  <Acidic Oxygens>
1

>  <Stereo Configuration>


> <Gold.Version>
5.8.1

> <Gold.Id.Protein>
ID_2|Prot_COX2_5IKQ_Alig|mol2

> <Gold.Goldscore.Fitness>
47.3088

> <Gold.Goldscore.Internal.Vdw>
-3.4184

> <Gold.Goldscore.Internal.Torsion>
-1.3434

> <Gold.Goldscore.External.Vdw>
31.9237

> <Gold.Goldscore.Internal.HBond>
0.0000

> <Gold.Goldscore.External.HBond>
3.8206

> <Gold.Goldscore.Internal.Correction>
-4.3549

> <Gold.Goldscore.Hbonds>
donor molecule, donor type, donor heavy atom, donor atom, acceptor molecule, acceptor atom, score
      P1  H  5176  5185       L1    14  0.64

> <Gold.Goldscore.Internal.Vdw.Weighted>
-3.4184

> <Gold.Goldscore.Internal.Torsion.Weighted>
-1.3434

> <Gold.Goldscore.External.Vdw.Weighted>
43.8951

> <Gold.Goldscore.Internal.HBond.Weighted>
0.0000

> <Gold.Goldscore.External.HBond.Weighted>
3.8206

> <Gold.Goldscore.Internal.Correction.Weighted>
-4.3549

> <Gold.Protein.RotatedTorsions>
[ 5077 5068 5067 5065 ] final   19.43 input  179.94 | X-H torsion
[ 5157 5152 5151 5148 ] final  146.37 input -179.92 | X-H torsion
[ 5185 5176 5175 5173 ] final   69.08 input -179.99 | X-H torsion
[ 5712 5703 5702 5700 ] final -135.01 input  180.00 | X-H torsion
[ 8036 8031 8030 8027 ] final  -47.91 input -179.94 | X-H torsion
[ 2749 2745 2743 2740 ] final   83.91 input  -60.05 | X-H torsion
[ 1366 1361 1360 1357 ] final   41.03 input  -60.09 | X-H torsion
[ 2556 2551 2550 2547 ] final  -26.18 input   59.97 | X-H torsion

> <Gold.Protein.ActiveResidues>
 PRO86   VAL89   HIS90   LEU93   THR94   ILE112  MET113  TYR115  VAL116  LEU117 
 THR118  SER119  ARG120  SER121  LEU123  ILE124  GLN192  SER194  PHE198  PHE201 
 ALA202  GLN203  PHE205  THR206  PHE209  PHE210  VAL228  ILE341  ILE343  VAL344 
 ILE345  GLU346  ASP347  TYR348  VAL349  GLN350  HIS351  LEU352  SER353  GLY354 
 TYR355  PHE357  LEU359  LYS360  GLU380  PHE381  ASN382  THR383  LEU384  TYR385 
 HIS386  TRP387  LEU390  VAL434  LEU507  ARG513  ALA516  ILE517  PHE518  GLY519 
 GLU520  THR521  MET522  VAL523  GLU524  VAL525  GLY526  ALA527  PRO528  PHE529 
 SER530  LEU531  LYS532  GLY533  LEU534  MET535  COH609 

> <Gold.Protein.RotatedAtoms>
   17.7992    7.2751    1.9855 H   0  0  0  0  0  0  0  0  0  0  0  0  # atno 1366 bound_to 1361
    4.9450   -9.4254    8.1531 H   0  0  0  0  0  0  0  0  0  0  0  0  # atno 2556 bound_to 2551
   -3.8388    0.1676   -0.0661 H   0  0  0  0  0  0  0  0  0  0  0  0  # atno 2749 bound_to 2745
    0.7280   -2.3649    4.2680 H   0  0  0  0  0  0  0  0  0  0  0  0  # atno 5077 bound_to 5068
   12.7701   -1.6333    9.1831 H   0  0  0  0  0  0  0  0  0  0  0  0  # atno 5157 bound_to 5152
   15.2063   -0.8000    4.6691 H   0  0  0  0  0  0  0  0  0  0  0  0  # atno 5185 bound_to 5176
    2.1609    0.4537    2.5342 H   0  0  0  0  0  0  0  0  0  0  0  0  # atno 5712 bound_to 5703
    5.8547    5.1766    3.5675 H   0  0  0  0  0  0  0  0  0  0  0  0  # atno 8036 bound_to 8031
    2.1705   -2.6331    3.9381 LP  0  0  0  0  0  0  0  0  0  0  0  0  # atno 8267 bound_to 5068
    1.4421   -1.2037    3.6331 LP  0  0  0  0  0  0  0  0  0  0  0  0  # atno 8268 bound_to 5068
   12.2798   -3.0545    9.2520 LP  0  0  0  0  0  0  0  0  0  0  0  0  # atno 8279 bound_to 5152
   11.2806   -1.7669    9.3524 LP  0  0  0  0  0  0  0  0  0  0  0  0  # atno 8280 bound_to 5152
   16.6961   -0.7145    4.8472 LP  0  0  0  0  0  0  0  0  0  0  0  0  # atno 8281 bound_to 5176
   15.7003    0.5586    5.0799 LP  0  0  0  0  0  0  0  0  0  0  0  0  # atno 8282 bound_to 5176
    3.1608   -0.6644    2.4407 LP  0  0  0  0  0  0  0  0  0  0  0  0  # atno 8283 bound_to 5703
    1.6173   -0.8925    2.9226 LP  0  0  0  0  0  0  0  0  0  0  0  0  # atno 8284 bound_to 5703
    5.9793    3.6818    3.6682 LP  0  0  0  0  0  0  0  0  0  0  0  0  # atno 8309 bound_to 8031
    4.6081    4.4272    3.1878 LP  0  0  0  0  0  0  0  0  0  0  0  0  # atno 8310 bound_to 8031
   -3.9172   -0.0322    1.4229 LP  0  0  0  0  0  0  0  0  0  0  0  0  # atno 8323 bound_to 2745
   -2.6962   -0.6214    0.5127 LP  0  0  0  0  0  0  0  0  0  0  0  0  # atno 8324 bound_to 2745
   18.0211    7.7079    3.4094 LP  0  0  0  0  0  0  0  0  0  0  0  0  # atno 8335 bound_to 1361
   18.8845    6.5169    2.7004 LP  0  0  0  0  0  0  0  0  0  0  0  0  # atno 8336 bound_to 1361
    4.4629   -8.7430    6.9018 LP  0  0  0  0  0  0  0  0  0  0  0  0  # atno 8342 bound_to 2551
    5.1518  -10.2235    6.8944 LP  0  0  0  0  0  0  0  0  0  0  0  0  # atno 8343 bound_to 2551

