
159|LMW3_p|sdf|159|dock34
  -GOLD-   6 92217203D 1   1.00000     0.00000

 49 48  0  0  0  0  0  0  0  0  2 V2000
    4.7938    1.5647    3.5227 O   0  0  0  0  0  0  0  0  0  0  0  0
    5.0380    0.7616    2.6384 C   0  0  0  0  0  0  0  0  0  0  0  0
    4.5073   -0.4751    2.6627 O   0  5  0  0  0  0  0  0  0  0  0  0
    5.9370    0.9857    1.4578 C   0  0  0  0  0  0  0  0  0  0  0  0
    7.0365   -0.0680    1.4111 C   0  0  0  0  0  0  0  0  0  0  0  0
    7.9797    0.0586    2.6075 C   0  0  0  0  0  0  0  0  0  0  0  0
    8.9666   -1.1085    2.6642 C   0  0  0  0  0  0  0  0  0  0  0  0
    9.7949   -1.0748    3.9496 C   0  0  0  0  0  0  0  0  0  0  0  0
   10.9660   -2.0577    3.8829 C   0  0  0  0  0  0  0  0  0  0  0  0
   10.4714   -3.5029    3.7911 C   0  0  0  0  0  0  0  0  0  0  0  0
   11.6041   -4.5312    3.7215 C   0  0  0  0  0  0  0  0  0  0  0  0
   11.1149   -5.9588    3.4636 C   0  0  0  0  0  0  0  0  0  0  0  0
   12.2326   -6.9768    3.7041 C   0  0  0  0  0  0  0  0  0  0  0  0
   12.5949   -7.1475    5.1825 C   0  0  0  0  0  0  0  0  0  0  0  0
   13.4327   -8.3823    5.5281 C   0  0  0  0  0  0  0  0  0  0  0  0
   13.9288   -8.3972    6.9751 C   0  0  0  0  0  0  0  0  0  0  0  0
   14.8475   -9.5922    7.2327 C   0  0  0  0  0  0  0  0  0  0  0  0
   15.3445   -9.6132    8.6694 C   0  0  0  0  0  0  0  0  0  0  0  0
    6.3828    1.9553    1.5346 H   0  0  0  0  0  0  0  0  0  0  0  0
    5.3543    0.9151    0.5631 H   0  0  0  0  0  0  0  0  0  0  0  0
    7.5991    0.0552    0.5093 H   0  0  0  0  0  0  0  0  0  0  0  0
    6.5789   -1.0347    1.4431 H   0  0  0  0  0  0  0  0  0  0  0  0
    7.4012    0.0697    3.5077 H   0  0  0  0  0  0  0  0  0  0  0  0
    8.5364    0.9665    2.5037 H   0  0  0  0  0  0  0  0  0  0  0  0
    9.6256   -1.0487    1.8233 H   0  0  0  0  0  0  0  0  0  0  0  0
    8.4100   -2.0222    2.6452 H   0  0  0  0  0  0  0  0  0  0  0  0
    9.1671   -1.3363    4.7757 H   0  0  0  0  0  0  0  0  0  0  0  0
   10.1893   -0.0876    4.0713 H   0  0  0  0  0  0  0  0  0  0  0  0
   11.5636   -1.9487    4.7637 H   0  0  0  0  0  0  0  0  0  0  0  0
   11.5411   -1.8403    3.0072 H   0  0  0  0  0  0  0  0  0  0  0  0
    9.8707   -3.6004    2.9110 H   0  0  0  0  0  0  0  0  0  0  0  0
    9.9173   -3.7040    4.6840 H   0  0  0  0  0  0  0  0  0  0  0  0
   12.1327   -4.5169    4.6517 H   0  0  0  0  0  0  0  0  0  0  0  0
   12.2286   -4.2577    2.8968 H   0  0  0  0  0  0  0  0  0  0  0  0
   10.7838   -6.0367    2.4491 H   0  0  0  0  0  0  0  0  0  0  0  0
   10.3122   -6.1700    4.1387 H   0  0  0  0  0  0  0  0  0  0  0  0
   13.1053   -6.6528    3.1766 H   0  0  0  0  0  0  0  0  0  0  0  0
   11.8765   -7.9237    3.3556 H   0  0  0  0  0  0  0  0  0  0  0  0
   11.6827   -7.2040    5.7390 H   0  0  0  0  0  0  0  0  0  0  0  0
   13.2058   -6.3047    5.4299 H   0  0  0  0  0  0  0  0  0  0  0  0
   14.2824   -8.4077    4.8783 H   0  0  0  0  0  0  0  0  0  0  0  0
   12.8007   -9.2366    5.4030 H   0  0  0  0  0  0  0  0  0  0  0  0
   13.0865   -8.4566    7.6323 H   0  0  0  0  0  0  0  0  0  0  0  0
   14.4832   -7.4994    7.1525 H   0  0  0  0  0  0  0  0  0  0  0  0
   15.6890   -9.5321    6.5745 H   0  0  0  0  0  0  0  0  0  0  0  0
   14.2900  -10.4885    7.0571 H   0  0  0  0  0  0  0  0  0  0  0  0
   15.9013   -8.7212    8.8674 H   0  0  0  0  0  0  0  0  0  0  0  0
   15.9734  -10.4662    8.8169 H   0  0  0  0  0  0  0  0  0  0  0  0
   14.5086   -9.6670    9.3353 H   0  0  0  0  0  0  0  0  0  0  0  0
  1  2  2  0  0  0  0
  2  3  1  0  0  0  0
  2  4  1  0  0  0  0
  4  5  1  0  0  0  0
  4 19  1  0  0  0  0
  4 20  1  0  0  0  0
  5  6  1  0  0  0  0
  5 21  1  0  0  0  0
  5 22  1  0  0  0  0
  6  7  1  0  0  0  0
  6 23  1  0  0  0  0
  6 24  1  0  0  0  0
  7  8  1  0  0  0  0
  7 25  1  0  0  0  0
  7 26  1  0  0  0  0
  8  9  1  0  0  0  0
  8 27  1  0  0  0  0
  8 28  1  0  0  0  0
  9 10  1  0  0  0  0
  9 29  1  0  0  0  0
  9 30  1  0  0  0  0
 10 11  1  0  0  0  0
 10 31  1  0  0  0  0
 10 32  1  0  0  0  0
 11 12  1  0  0  0  0
 11 33  1  0  0  0  0
 11 34  1  0  0  0  0
 12 13  1  0  0  0  0
 12 35  1  0  0  0  0
 12 36  1  0  0  0  0
 13 14  1  0  0  0  0
 13 37  1  0  0  0  0
 13 38  1  0  0  0  0
 14 15  1  0  0  0  0
 14 39  1  0  0  0  0
 14 40  1  0  0  0  0
 15 16  1  0  0  0  0
 15 41  1  0  0  0  0
 15 42  1  0  0  0  0
 16 17  1  0  0  0  0
 16 43  1  0  0  0  0
 16 44  1  0  0  0  0
 17 18  1  0  0  0  0
 17 45  1  0  0  0  0
 17 46  1  0  0  0  0
 18 47  1  0  0  0  0
 18 48  1  0  0  0  0
 18 49  1  0  0  0  0
M  CHG  1   3  -1
M  END
>  <Code-name>
159

>  <Compound>
Hexadecanoic acid

>  <Specie>
Pleurotus djamor

>  <Reference>
Mehreen Zeb and Chow H. Lee, 2030

>  <Organism>
N/A

>  <Smiles>
CCCCCCCCCCCCCCCC(O)=O

>  <MMFF94 Energy>
-27.561

>  <Total Molweight>
256.428

>  <Molweight>
256.428

>  <Monoisotopic Mass>
256.240230

>  <cLogP>
6.0625

>  <cLogS>
-4.239

>  <H-Acceptors>
2

>  <H-Donors>
1

>  <Total Surface Area>
242.5

>  <Relative PSA>
0.10779

>  <Polar Surface Area>
37.3

>  <Druglikeness>
-25.216

>  <Mutagenic>
none

>  <Tumorigenic>
high

>  <Reproductive Effective>
none

>  <Irritant>
high

>  <Nasty Functions>


>  <Shape Index>
0.94444

>  <Molecular Flexibility>
0.52382

>  <Molecular Complexity>
0.35499

>  <Fragments>
1

>  <Non-H Atoms>
18

>  <Non-C/H Atoms>
2

>  <Metal-Atoms>
0

>  <Electronegative Atoms>
2

>  <Stereo Centers>
0

>  <Rotatable Bonds>
14

>  <Rings Closures>
0

>  <Small Rings>
0

>  <Aromatic Rings>
0

>  <Aromatic Atoms>
0

>  <sp3-Atoms>
16

>  <Symmetric atoms>
0

>  <Amides>
0

>  <Amines>
0

>  <Alkyl-Amines>
0

>  <Aromatic Amines>
0

>  <Aromatic Nitrogens>
0

>  <Basic Nitrogens>
0

>  <Acidic Oxygens>
1

>  <Stereo Configuration>


> <Gold.Version>
5.8.1

> <Gold.Id.Protein>
ID_2|Prot_COX2_5IKQ_Alig|mol2

> <Gold.Goldscore.Fitness>
60.3334

> <Gold.Goldscore.Internal.Vdw>
-12.5555

> <Gold.Goldscore.Internal.Torsion>
-3.1633

> <Gold.Goldscore.External.Vdw>
40.4286

> <Gold.Goldscore.Internal.HBond>
0.0000

> <Gold.Goldscore.External.HBond>
9.4810

> <Gold.Goldscore.Internal.Correction>
-10.9818

> <Gold.Goldscore.Hbonds>
donor molecule, donor type, donor heavy atom, donor atom, acceptor molecule, acceptor atom, score
      P1  H  5068  5077       L1     3  0.26
      P1  H  5703  5712       L1     3  0.32
      P1  H  8031  8036       L1     1  1.00

> <Gold.Goldscore.Internal.Vdw.Weighted>
-12.5555

> <Gold.Goldscore.Internal.Torsion.Weighted>
-3.1633

> <Gold.Goldscore.External.Vdw.Weighted>
55.5893

> <Gold.Goldscore.Internal.HBond.Weighted>
0.0000

> <Gold.Goldscore.External.HBond.Weighted>
9.4810

> <Gold.Goldscore.Internal.Correction.Weighted>
-10.9818

> <Gold.Protein.RotatedTorsions>
[ 5077 5068 5067 5065 ] final -164.10 input  179.94 | X-H torsion
[ 5157 5152 5151 5148 ] final -169.56 input -179.92 | X-H torsion
[ 5185 5176 5175 5173 ] final  -38.33 input -179.99 | X-H torsion
[ 5712 5703 5702 5700 ] final  119.27 input  180.00 | X-H torsion
[ 8036 8031 8030 8027 ] final  146.95 input -179.94 | X-H torsion
[ 2749 2745 2743 2740 ] final  -78.14 input  -60.05 | X-H torsion
[ 1366 1361 1360 1357 ] final -157.42 input  -60.09 | X-H torsion
[ 2556 2551 2550 2547 ] final -121.40 input   59.97 | X-H torsion

> <Gold.Protein.ActiveResidues>
 PRO86   VAL89   HIS90   LEU93   THR94   ILE112  MET113  TYR115  VAL116  LEU117 
 THR118  SER119  ARG120  SER121  LEU123  ILE124  GLN192  SER194  PHE198  PHE201 
 ALA202  GLN203  PHE205  THR206  PHE209  PHE210  VAL228  ILE341  ILE343  VAL344 
 ILE345  GLU346  ASP347  TYR348  VAL349  GLN350  HIS351  LEU352  SER353  GLY354 
 TYR355  PHE357  LEU359  LYS360  GLU380  PHE381  ASN382  THR383  LEU384  TYR385 
 HIS386  TRP387  LEU390  VAL434  LEU507  ARG513  ALA516  ILE517  PHE518  GLY519 
 GLU520  THR521  MET522  VAL523  GLU524  VAL525  GLY526  ALA527  PRO528  PHE529 
 SER530  LEU531  LYS532  GLY533  LEU534  MET535  COH609 

> <Gold.Protein.RotatedAtoms>
   18.7643    6.9314    3.1623 H   0  0  0  0  0  0  0  0  0  0  0  0  # atno 1366 bound_to 1361
    4.4917   -8.7640    7.3046 H   0  0  0  0  0  0  0  0  0  0  0  0  # atno 2556 bound_to 2551
   -3.3451   -0.3027    1.3374 H   0  0  0  0  0  0  0  0  0  0  0  0  # atno 2749 bound_to 2745
    2.0676   -1.7460    3.7089 H   0  0  0  0  0  0  0  0  0  0  0  0  # atno 5077 bound_to 5068
   12.2585   -1.3365    9.2302 H   0  0  0  0  0  0  0  0  0  0  0  0  # atno 5157 bound_to 5152
   16.4655   -0.8097    4.8348 H   0  0  0  0  0  0  0  0  0  0  0  0  # atno 5185 bound_to 5176
    3.0493   -0.4236    2.3938 H   0  0  0  0  0  0  0  0  0  0  0  0  # atno 5712 bound_to 5703
    5.3526    3.7047    3.4046 H   0  0  0  0  0  0  0  0  0  0  0  0  # atno 8036 bound_to 8031
    0.5973   -1.5940    3.9857 LP  0  0  0  0  0  0  0  0  0  0  0  0  # atno 8267 bound_to 5068
    1.4112   -2.9838    4.2551 LP  0  0  0  0  0  0  0  0  0  0  0  0  # atno 8268 bound_to 5068
   12.8917   -2.7015    9.2043 LP  0  0  0  0  0  0  0  0  0  0  0  0  # atno 8279 bound_to 5152
   11.2806   -2.4749    9.3439 LP  0  0  0  0  0  0  0  0  0  0  0  0  # atno 8280 bound_to 5152
   15.9028    0.5571    5.1066 LP  0  0  0  0  0  0  0  0  0  0  0  0  # atno 8281 bound_to 5176
   14.9818   -0.7012    4.6216 LP  0  0  0  0  0  0  0  0  0  0  0  0  # atno 8282 bound_to 5176
    1.7813   -1.0545    2.8967 LP  0  0  0  0  0  0  0  0  0  0  0  0  # atno 8283 bound_to 5703
    1.9305    0.5505    2.6352 LP  0  0  0  0  0  0  0  0  0  0  0  0  # atno 8284 bound_to 5703
    4.8415    5.1113    3.2635 LP  0  0  0  0  0  0  0  0  0  0  0  0  # atno 8309 bound_to 8031
    6.3483    4.7636    3.7879 LP  0  0  0  0  0  0  0  0  0  0  0  0  # atno 8310 bound_to 8031
   -2.9112   -0.4166   -0.0986 LP  0  0  0  0  0  0  0  0  0  0  0  0  # atno 8323 bound_to 2745
   -4.2935    0.3262    0.3533 LP  0  0  0  0  0  0  0  0  0  0  0  0  # atno 8324 bound_to 2745
   18.1453    6.7801    1.7992 LP  0  0  0  0  0  0  0  0  0  0  0  0  # atno 8335 bound_to 1361
   17.6057    7.8558    2.9030 LP  0  0  0  0  0  0  0  0  0  0  0  0  # atno 8336 bound_to 1361
    4.9954   -9.9954    6.6018 LP  0  0  0  0  0  0  0  0  0  0  0  0  # atno 8342 bound_to 2551
    5.1615   -9.7624    8.2095 LP  0  0  0  0  0  0  0  0  0  0  0  0  # atno 8343 bound_to 2551

