
162|LMW3_p|sdf|162|dock74
  -GOLD-   6 92217473D 1   1.00000     0.00000

 46 47  0  0  0  0  0  0  0  0  1 V2000
    7.8311    4.5590    5.3951 O   0  0  0  0  0  0  0  0  0  0  0  0
    8.2227    3.6752    4.6555 C   0  0  0  0  0  0  0  0  0  0  0  0
    7.4413    2.7730    3.9761 O   0  0  0  0  0  0  0  0  0  0  0  0
    9.6530    3.3986    4.3410 C   0  0  0  0  0  0  0  0  0  0  0  0
    8.3312    1.9204    3.2380 C   0  0  2  0  0  0  0  0  0  0  0  0
    9.6793    2.3572    3.5012 C   0  0  0  0  0  0  0  0  0  0  0  0
    7.8541    1.4279    1.9857 O   0  0  0  0  0  0  0  0  0  0  0  0
    7.9280    0.4856    3.0706 C   0  0  1  0  0  0  0  0  0  0  0  0
    8.9058   -0.6273    2.8495 C   0  0  1  0  0  0  0  0  0  0  0  0
    9.8023   -0.2169    1.8222 O   0  0  0  0  0  0  0  0  0  0  0  0
    9.6763   -0.9322    4.1424 C   0  0  0  0  0  0  0  0  0  0  0  0
   10.8227   -1.9408    4.0008 C   0  0  0  0  0  0  0  0  0  0  0  0
   10.3492   -3.3639    3.7001 C   0  0  0  0  0  0  0  0  0  0  0  0
   11.5288   -4.3361    3.6270 C   0  0  0  0  0  0  0  0  0  0  0  0
   11.0558   -5.7648    3.3528 C   0  0  0  0  0  0  0  0  0  0  0  0
   12.1820   -6.7766    3.5769 C   0  0  0  0  0  0  0  0  0  0  0  0
   12.4970   -6.9333    5.0661 C   0  0  0  0  0  0  0  0  0  0  0  0
   13.3211   -8.1836    5.3857 C   0  0  0  0  0  0  0  0  0  0  0  0
   13.6863   -8.3094    6.8653 C   0  0  0  0  0  0  0  0  0  0  0  0
   14.5352   -9.5448    7.1236 C   0  0  0  0  0  0  0  0  0  0  0  0
   10.4704    3.9140    4.7033 H   0  0  0  0  0  0  0  0  0  0  0  0
   10.5320    1.9329    3.1039 H   0  0  0  0  0  0  0  0  0  0  0  0
    7.2908   -0.1503    3.6489 H   0  0  0  0  0  0  0  0  0  0  0  0
    8.3922   -1.5208    2.5618 H   0  0  0  0  0  0  0  0  0  0  0  0
    9.3367   -0.2078    0.9713 H   0  0  0  0  0  0  0  0  0  0  0  0
    8.9813   -1.3202    4.8574 H   0  0  0  0  0  0  0  0  0  0  0  0
   10.1293   -0.0100    4.4410 H   0  0  0  0  0  0  0  0  0  0  0  0
   11.3768   -1.9545    4.9160 H   0  0  0  0  0  0  0  0  0  0  0  0
   11.4189   -1.6253    3.1702 H   0  0  0  0  0  0  0  0  0  0  0  0
    9.8338   -3.3694    2.7624 H   0  0  0  0  0  0  0  0  0  0  0  0
    9.6994   -3.6785    4.4898 H   0  0  0  0  0  0  0  0  0  0  0  0
   12.0553   -4.3160    4.5583 H   0  0  0  0  0  0  0  0  0  0  0  0
   12.1676   -4.0321    2.8242 H   0  0  0  0  0  0  0  0  0  0  0  0
   10.7229   -5.8330    2.3382 H   0  0  0  0  0  0  0  0  0  0  0  0
   10.2585   -5.9920    4.0293 H   0  0  0  0  0  0  0  0  0  0  0  0
   13.0606   -6.4394    3.0679 H   0  0  0  0  0  0  0  0  0  0  0  0
   11.8660   -7.7252    3.1958 H   0  0  0  0  0  0  0  0  0  0  0  0
   11.5737   -6.9892    5.6039 H   0  0  0  0  0  0  0  0  0  0  0  0
   13.0834   -6.0863    5.3554 H   0  0  0  0  0  0  0  0  0  0  0  0
   14.2255   -8.1486    4.8150 H   0  0  0  0  0  0  0  0  0  0  0  0
   12.7178   -9.0315    5.1365 H   0  0  0  0  0  0  0  0  0  0  0  0
   12.7872   -8.3780    7.4414 H   0  0  0  0  0  0  0  0  0  0  0  0
   14.2525   -7.4463    7.1472 H   0  0  0  0  0  0  0  0  0  0  0  0
   14.6997   -9.6511    8.1755 H   0  0  0  0  0  0  0  0  0  0  0  0
   15.4758   -9.4421    6.6240 H   0  0  0  0  0  0  0  0  0  0  0  0
   14.0272  -10.4105    6.7529 H   0  0  0  0  0  0  0  0  0  0  0  0
  1  2  2  0  0  0  0
  2  3  1  0  0  0  0
  2  4  1  0  0  0  0
  4  6  2  0  0  0  0
  4 21  1  0  0  0  0
  5  3  1  0  0  0  0
  5  7  1  0  0  0  0
  5  8  1  0  0  0  0
  5  6  1  0  0  0  0
  6 22  1  0  0  0  0
  7  8  1  0  0  0  0
  8  9  1  0  0  0  0
  8 23  1  0  0  0  0
  9 10  1  0  0  0  0
  9 11  1  0  0  0  0
  9 24  1  0  0  0  0
 10 25  1  0  0  0  0
 11 12  1  0  0  0  0
 11 26  1  0  0  0  0
 11 27  1  0  0  0  0
 12 13  1  0  0  0  0
 12 28  1  0  0  0  0
 12 29  1  0  0  0  0
 13 14  1  0  0  0  0
 13 30  1  0  0  0  0
 13 31  1  0  0  0  0
 14 15  1  0  0  0  0
 14 32  1  0  0  0  0
 14 33  1  0  0  0  0
 15 16  1  0  0  0  0
 15 34  1  0  0  0  0
 15 35  1  0  0  0  0
 16 17  1  0  0  0  0
 16 36  1  0  0  0  0
 16 37  1  0  0  0  0
 17 18  1  0  0  0  0
 17 38  1  0  0  0  0
 17 39  1  0  0  0  0
 18 19  1  0  0  0  0
 18 40  1  0  0  0  0
 18 41  1  0  0  0  0
 19 20  1  0  0  0  0
 19 42  1  0  0  0  0
 19 43  1  0  0  0  0
 20 44  1  0  0  0  0
 20 45  1  0  0  0  0
 20 46  1  0  0  0  0
M  END
>  <Code-name>
162

>  <Compound>
Ramariolide A

>  <Specie>
Ramaria cystidiophora

>  <Reference>
Mehreen Zeb and Chow H. Lee, 2033

>  <Organism>
Antimicrobial Activity

>  <Smiles>
CCCCCCCCCC[C@@H]([C@@H]1O[C@@]1(C=C1)OC1=O)O

>  <MMFF94 Energy>
0.33407

>  <Total Molweight>
282.378

>  <Molweight>
282.378

>  <Monoisotopic Mass>
282.183110

>  <cLogP>
3.1847

>  <cLogS>
-3.459

>  <H-Acceptors>
4

>  <H-Donors>
1

>  <Total Surface Area>
236.26

>  <Relative PSA>
0.22767

>  <Polar Surface Area>
59.06

>  <Druglikeness>
-20.435

>  <Mutagenic>
high

>  <Tumorigenic>
low

>  <Reproductive Effective>
none

>  <Irritant>
high

>  <Nasty Functions>
oxiran/aziridine

>  <Shape Index>
0.8

>  <Molecular Flexibility>
0.51099

>  <Molecular Complexity>
0.74806

>  <Fragments>
1

>  <Non-H Atoms>
20

>  <Non-C/H Atoms>
4

>  <Metal-Atoms>
0

>  <Electronegative Atoms>
4

>  <Stereo Centers>
3

>  <Rotatable Bonds>
10

>  <Rings Closures>
2

>  <Small Rings>
2

>  <Aromatic Rings>
0

>  <Aromatic Atoms>
0

>  <sp3-Atoms>
16

>  <Symmetric atoms>
0

>  <Amides>
0

>  <Amines>
0

>  <Alkyl-Amines>
0

>  <Aromatic Amines>
0

>  <Aromatic Nitrogens>
0

>  <Basic Nitrogens>
0

>  <Acidic Oxygens>
0

>  <Stereo Configuration>
this enantiomer

> <Gold.Version>
5.8.1

> <Gold.Id.Protein>
ID_2|Prot_COX2_5IKQ_Alig|mol2

> <Gold.Goldscore.Fitness>
54.8761

> <Gold.Goldscore.Internal.Vdw>
-12.9005

> <Gold.Goldscore.Internal.Torsion>
-2.4737

> <Gold.Goldscore.External.Vdw>
42.2028

> <Gold.Goldscore.Internal.HBond>
0.0000

> <Gold.Goldscore.External.HBond>
1.5945

> <Gold.Goldscore.Internal.Correction>
-10.6270

> <Gold.Goldscore.Hbonds>
donor molecule, donor type, donor heavy atom, donor atom, acceptor molecule, acceptor atom, score
      P1  H  8031  8036       L1     1  0.80

> <Gold.Goldscore.Internal.Vdw.Weighted>
-12.9005

> <Gold.Goldscore.Internal.Torsion.Weighted>
-2.4737

> <Gold.Goldscore.External.Vdw.Weighted>
58.0288

> <Gold.Goldscore.Internal.HBond.Weighted>
0.0000

> <Gold.Goldscore.External.HBond.Weighted>
1.5945

> <Gold.Goldscore.Internal.Correction.Weighted>
-10.6270

> <Gold.Protein.RotatedTorsions>
[ 5077 5068 5067 5065 ] final  -56.64 input  179.94 | X-H torsion
[ 5157 5152 5151 5148 ] final   -7.67 input -179.92 | X-H torsion
[ 5185 5176 5175 5173 ] final   53.55 input -179.99 | X-H torsion
[ 5712 5703 5702 5700 ] final  134.25 input  180.00 | X-H torsion
[ 8036 8031 8030 8027 ] final -100.71 input -179.94 | X-H torsion
[ 2749 2745 2743 2740 ] final -109.39 input  -60.05 | X-H torsion
[ 1366 1361 1360 1357 ] final   39.30 input  -60.09 | X-H torsion
[ 2556 2551 2550 2547 ] final  160.19 input   59.97 | X-H torsion

> <Gold.Protein.ActiveResidues>
 PRO86   VAL89   HIS90   LEU93   THR94   ILE112  MET113  TYR115  VAL116  LEU117 
 THR118  SER119  ARG120  SER121  LEU123  ILE124  GLN192  SER194  PHE198  PHE201 
 ALA202  GLN203  PHE205  THR206  PHE209  PHE210  VAL228  ILE341  ILE343  VAL344 
 ILE345  GLU346  ASP347  TYR348  VAL349  GLN350  HIS351  LEU352  SER353  GLY354 
 TYR355  PHE357  LEU359  LYS360  GLU380  PHE381  ASN382  THR383  LEU384  TYR385 
 HIS386  TRP387  LEU390  VAL434  LEU507  ARG513  ALA516  ILE517  PHE518  GLY519 
 GLU520  THR521  MET522  VAL523  GLU524  VAL525  GLY526  ALA527  PRO528  PHE529 
 SER530  LEU531  LYS532  GLY533  LEU534  MET535  COH609 

> <Gold.Protein.RotatedAtoms>
   17.7868    7.2924    1.9962 H   0  0  0  0  0  0  0  0  0  0  0  0  # atno 1366 bound_to 1361
    4.6864   -9.4413    6.5963 H   0  0  0  0  0  0  0  0  0  0  0  0  # atno 2556 bound_to 2551
   -3.0196   -0.4623    1.1146 H   0  0  0  0  0  0  0  0  0  0  0  0  # atno 2749 bound_to 2745
    1.5871   -2.8165    4.2021 H   0  0  0  0  0  0  0  0  0  0  0  0  # atno 5077 bound_to 5068
   11.8011   -2.8295    9.2510 H   0  0  0  0  0  0  0  0  0  0  0  0  # atno 5157 bound_to 5152
   15.3575   -0.9483    4.6467 H   0  0  0  0  0  0  0  0  0  0  0  0  # atno 5185 bound_to 5176
    3.0423   -0.2199    2.3682 H   0  0  0  0  0  0  0  0  0  0  0  0  # atno 5712 bound_to 5703
    6.2470    4.6125    3.7076 H   0  0  0  0  0  0  0  0  0  0  0  0  # atno 8036 bound_to 8031
    2.0636   -1.5304    3.5854 LP  0  0  0  0  0  0  0  0  0  0  0  0  # atno 8267 bound_to 5068
    0.5203   -1.7655    4.0648 LP  0  0  0  0  0  0  0  0  0  0  0  0  # atno 8268 bound_to 5068
   11.6293   -1.3363    9.3279 LP  0  0  0  0  0  0  0  0  0  0  0  0  # atno 8279 bound_to 5152
   13.0900   -2.0544    9.1953 LP  0  0  0  0  0  0  0  0  0  0  0  0  # atno 8280 bound_to 5152
   16.7582   -0.4791    4.9232 LP  0  0  0  0  0  0  0  0  0  0  0  0  # atno 8281 bound_to 5176
   15.4567    0.5013    5.0308 LP  0  0  0  0  0  0  0  0  0  0  0  0  # atno 8282 bound_to 5176
    1.9898   -1.1772    2.8524 LP  0  0  0  0  0  0  0  0  0  0  0  0  # atno 8283 bound_to 5703
    1.7304    0.4287    2.7102 LP  0  0  0  0  0  0  0  0  0  0  0  0  # atno 8284 bound_to 5703
    5.1910    3.5889    3.3959 LP  0  0  0  0  0  0  0  0  0  0  0  0  # atno 8309 bound_to 8031
    4.9257    5.1968    3.2920 LP  0  0  0  0  0  0  0  0  0  0  0  0  # atno 8310 bound_to 8031
   -3.2855   -0.1682   -0.3367 LP  0  0  0  0  0  0  0  0  0  0  0  0  # atno 8323 bound_to 2745
   -4.3091    0.2690    0.8582 LP  0  0  0  0  0  0  0  0  0  0  0  0  # atno 8324 bound_to 2745
   18.0420    7.6947    3.4234 LP  0  0  0  0  0  0  0  0  0  0  0  0  # atno 8335 bound_to 1361
   18.8784    6.5094    2.6737 LP  0  0  0  0  0  0  0  0  0  0  0  0  # atno 8336 bound_to 1361
    5.2916  -10.2150    7.7362 LP  0  0  0  0  0  0  0  0  0  0  0  0  # atno 8342 bound_to 2551
    4.6325   -8.7326    7.9226 LP  0  0  0  0  0  0  0  0  0  0  0  0  # atno 8343 bound_to 2551

