
168|LMW3_p|sdf|168|dock1
  -GOLD-   6 92219563D 1   1.00000     0.00000

 77 80  0  0  0  0  0  0  0  0  2 V2000
    4.7614   -1.0984    2.9463 O   0  0  0  0  0  0  0  0  0  0  0  0
    5.8668   -0.7119    2.5609 C   0  0  0  0  0  0  0  0  0  0  0  0
    6.2680    0.7718    2.5747 C   0  0  0  0  0  0  0  0  0  0  0  0
    6.8263   -1.6957    1.9404 C   0  0  0  0  0  0  0  0  0  0  0  0
    7.7798    0.9064    2.9688 C   0  0  1  0  0  0  0  0  0  0  0  0
    5.8838    1.3837    1.2194 C   0  0  0  0  0  0  0  0  0  0  0  0
    5.4018    1.4766    3.6520 C   0  0  0  0  0  0  0  0  0  0  0  0
    8.2310   -1.5189    2.4939 C   0  0  0  0  0  0  0  0  0  0  0  0
    8.7958   -0.0897    2.2946 C   0  0  2  0  0  0  0  0  0  0  0  0
    8.3231    2.3411    2.8796 C   0  0  0  0  0  0  0  0  0  0  0  0
   10.1837    0.0799    2.9725 C   0  0  0  0  0  0  0  0  0  0  0  0
    9.0409    0.1627    0.7886 C   0  0  0  0  0  0  0  0  0  0  0  0
    9.6594    2.4694    3.6104 C   0  0  0  0  0  0  0  0  0  0  0  0
   10.5562    1.2540    3.5459 C   0  0  0  0  0  0  0  0  0  0  0  0
   11.1342   -1.1216    2.9215 C   0  0  0  0  0  0  0  0  0  0  0  0
   11.9122    1.3672    4.2371 C   0  0  1  0  0  0  0  0  0  0  0  0
   12.5628   -0.9322    3.4751 C   0  0  0  0  0  0  0  0  0  0  0  0
   12.9986    0.5381    3.4520 C   0  0  2  0  0  0  0  0  0  0  0  0
   12.5851    2.7479    4.3156 C   0  0  0  0  0  0  0  0  0  0  0  0
   11.6563    0.8937    5.7037 C   0  0  0  0  0  0  0  0  0  0  0  0
   14.3134    0.8816    4.2351 C   0  0  2  0  0  0  0  0  0  0  0  0
   13.1421    0.9782    1.9581 C   0  0  0  0  0  0  0  0  0  0  0  0
   14.0390    2.3643    4.5216 C   0  0  0  0  0  0  0  0  0  0  0  0
   15.6685    0.6387    3.5378 C   0  0  2  0  0  0  0  0  0  0  0  0
   14.8831    3.1737    4.8852 O   0  0  0  0  0  0  0  0  0  0  0  0
   15.7858   -0.8039    3.1029 C   0  0  0  0  0  0  0  0  0  0  0  0
   16.9336    0.9618    4.3680 C   0  0  0  0  0  0  0  0  0  0  0  0
   15.5990   -1.7908    3.7942 O   0  0  0  0  0  0  0  0  0  0  0  0
   16.1535   -0.9305    1.8143 O   0  5  0  0  0  0  0  0  0  0  0  0
   18.2636    0.5579    3.7222 C   0  0  0  0  0  0  0  0  0  0  0  0
   18.4799    1.3005    2.4318 C   0  0  0  0  0  0  0  0  0  0  0  0
   18.8240    2.5935    2.2743 C   0  0  0  0  0  0  0  0  0  0  0  0
   19.1089    3.5548    3.3951 C   0  0  0  0  0  0  0  0  0  0  0  0
   18.9649    3.1871    0.8969 C   0  0  0  0  0  0  0  0  0  0  0  0
    6.8468   -1.5427    0.8816 H   0  0  0  0  0  0  0  0  0  0  0  0
    6.4934   -2.6857    2.1727 H   0  0  0  0  0  0  0  0  0  0  0  0
    7.7315    0.6072    3.9949 H   0  0  0  0  0  0  0  0  0  0  0  0
    4.8542    1.6746    1.2384 H   0  0  0  0  0  0  0  0  0  0  0  0
    6.0359    0.6606    0.4455 H   0  0  0  0  0  0  0  0  0  0  0  0
    6.4936    2.2423    1.0300 H   0  0  0  0  0  0  0  0  0  0  0  0
    4.3661    1.3017    3.4474 H   0  0  0  0  0  0  0  0  0  0  0  0
    5.5962    2.5286    3.6338 H   0  0  0  0  0  0  0  0  0  0  0  0
    5.6455    1.0854    4.6176 H   0  0  0  0  0  0  0  0  0  0  0  0
    8.8799   -2.2118    2.0001 H   0  0  0  0  0  0  0  0  0  0  0  0
    8.1794   -1.6938    3.5482 H   0  0  0  0  0  0  0  0  0  0  0  0
    7.6162    3.0107    3.3234 H   0  0  0  0  0  0  0  0  0  0  0  0
    8.4747    2.5838    1.8486 H   0  0  0  0  0  0  0  0  0  0  0  0
    9.9831    0.6526    0.6578 H   0  0  0  0  0  0  0  0  0  0  0  0
    8.2599    0.7816    0.3989 H   0  0  0  0  0  0  0  0  0  0  0  0
    9.0493   -0.7715    0.2671 H   0  0  0  0  0  0  0  0  0  0  0  0
    9.4535    2.6729    4.6405 H   0  0  0  0  0  0  0  0  0  0  0  0
   10.1915    3.2537    3.1137 H   0  0  0  0  0  0  0  0  0  0  0  0
   11.2252   -1.4134    1.8961 H   0  0  0  0  0  0  0  0  0  0  0  0
   10.6877   -1.8466    3.5695 H   0  0  0  0  0  0  0  0  0  0  0  0
   13.2429   -1.5034    2.8783 H   0  0  0  0  0  0  0  0  0  0  0  0
   12.5690   -1.2625    4.4929 H   0  0  0  0  0  0  0  0  0  0  0  0
   12.2109    3.3189    5.1396 H   0  0  0  0  0  0  0  0  0  0  0  0
   12.4140    3.3661    3.4592 H   0  0  0  0  0  0  0  0  0  0  0  0
   11.0551    1.6179    6.2126 H   0  0  0  0  0  0  0  0  0  0  0  0
   12.5916    0.7860    6.2120 H   0  0  0  0  0  0  0  0  0  0  0  0
   11.1469   -0.0472    5.6910 H   0  0  0  0  0  0  0  0  0  0  0  0
   14.4658    0.2347    5.0737 H   0  0  0  0  0  0  0  0  0  0  0  0
   13.3971    2.0165    1.9151 H   0  0  0  0  0  0  0  0  0  0  0  0
   12.2153    0.8171    1.4483 H   0  0  0  0  0  0  0  0  0  0  0  0
   13.9120    0.4021    1.4889 H   0  0  0  0  0  0  0  0  0  0  0  0
   15.6485    1.3266    2.7186 H   0  0  0  0  0  0  0  0  0  0  0  0
   16.8529    0.4516    5.3050 H   0  0  0  0  0  0  0  0  0  0  0  0
   16.9619    2.0275    4.4601 H   0  0  0  0  0  0  0  0  0  0  0  0
   18.2519   -0.4935    3.5239 H   0  0  0  0  0  0  0  0  0  0  0  0
   19.0589    0.8018    4.3951 H   0  0  0  0  0  0  0  0  0  0  0  0
   18.3494    0.7553    1.5654 H   0  0  0  0  0  0  0  0  0  0  0  0
   19.9872    4.1210    3.1648 H   0  0  0  0  0  0  0  0  0  0  0  0
   19.2641    3.0091    4.3023 H   0  0  0  0  0  0  0  0  0  0  0  0
   18.2782    4.2183    3.5158 H   0  0  0  0  0  0  0  0  0  0  0  0
   18.3866    2.6156    0.2014 H   0  0  0  0  0  0  0  0  0  0  0  0
   19.9940    3.1695    0.6044 H   0  0  0  0  0  0  0  0  0  0  0  0
   18.6142    4.1980    0.9066 H   0  0  0  0  0  0  0  0  0  0  0  0
  1  2  2  0  0  0  0
  2  3  1  0  0  0  0
  2  4  1  0  0  0  0
  3  5  1  0  0  0  0
  3  6  1  0  0  0  0
  3  7  1  0  0  0  0
  4  8  1  0  0  0  0
  4 35  1  0  0  0  0
  4 36  1  0  0  0  0
  5  9  1  0  0  0  0
  5 10  1  0  0  0  0
  5 37  1  0  0  0  0
  6 38  1  0  0  0  0
  6 39  1  0  0  0  0
  6 40  1  0  0  0  0
  7 41  1  0  0  0  0
  7 42  1  0  0  0  0
  7 43  1  0  0  0  0
  8  9  1  0  0  0  0
  8 44  1  0  0  0  0
  8 45  1  0  0  0  0
  9 11  1  0  0  0  0
  9 12  1  0  0  0  0
 10 13  1  0  0  0  0
 10 46  1  0  0  0  0
 10 47  1  0  0  0  0
 11 14  2  0  0  0  0
 11 15  1  0  0  0  0
 12 48  1  0  0  0  0
 12 49  1  0  0  0  0
 12 50  1  0  0  0  0
 13 14  1  0  0  0  0
 13 51  1  0  0  0  0
 13 52  1  0  0  0  0
 14 16  1  0  0  0  0
 15 17  1  0  0  0  0
 15 53  1  0  0  0  0
 15 54  1  0  0  0  0
 16 18  1  0  0  0  0
 16 19  1  0  0  0  0
 16 20  1  0  0  0  0
 17 18  1  0  0  0  0
 17 55  1  0  0  0  0
 17 56  1  0  0  0  0
 18 21  1  0  0  0  0
 18 22  1  0  0  0  0
 19 23  1  0  0  0  0
 19 57  1  0  0  0  0
 19 58  1  0  0  0  0
 20 59  1  0  0  0  0
 20 60  1  0  0  0  0
 20 61  1  0  0  0  0
 21 24  1  0  0  0  0
 21 23  1  0  0  0  0
 21 62  1  0  0  0  0
 22 63  1  0  0  0  0
 22 64  1  0  0  0  0
 22 65  1  0  0  0  0
 23 25  2  0  0  0  0
 24 26  1  0  0  0  0
 24 27  1  0  0  0  0
 24 66  1  0  0  0  0
 26 28  2  0  0  0  0
 26 29  1  0  0  0  0
 27 30  1  0  0  0  0
 27 67  1  0  0  0  0
 27 68  1  0  0  0  0
 30 31  1  0  0  0  0
 30 69  1  0  0  0  0
 30 70  1  0  0  0  0
 31 32  2  0  0  0  0
 31 71  1  0  0  0  0
 32 33  1  0  0  0  0
 32 34  1  0  0  0  0
 33 72  1  0  0  0  0
 33 73  1  0  0  0  0
 33 74  1  0  0  0  0
 34 75  1  0  0  0  0
 34 76  1  0  0  0  0
 34 77  1  0  0  0  0
M  CHG  1  29  -1
M  END
>  <Code-name>
168

>  <Compound>
Pinicolic acid

>  <Specie>
Fomitopsis pinicola

>  <Reference>
Mehreen Zeb and Chow H. Lee, 2039

>  <Organism>
N/A

>  <Smiles>
C[C@@](C1)([C@](C)(CC2)[C@@H]([C@@H](CCC=C(C)C)C(O)=O)C1=O)C(CC1)=C2[C@@](C)(CC2)[C@@H]1C(C)(C)C2=O

>  <MMFF94 Energy>
70.862

>  <Total Molweight>
468.675

>  <Molweight>
468.675

>  <Monoisotopic Mass>
468.323960

>  <cLogP>
6.5806

>  <cLogS>
-5.631

>  <H-Acceptors>
4

>  <H-Donors>
1

>  <Total Surface Area>
355.53

>  <Relative PSA>
0.14688

>  <Polar Surface Area>
71.44

>  <Druglikeness>
-5.0772

>  <Mutagenic>
none

>  <Tumorigenic>
none

>  <Reproductive Effective>
high

>  <Irritant>
none

>  <Nasty Functions>


>  <Shape Index>
0.47059

>  <Molecular Flexibility>
0.31129

>  <Molecular Complexity>
1.0223

>  <Fragments>
1

>  <Non-H Atoms>
34

>  <Non-C/H Atoms>
4

>  <Metal-Atoms>
0

>  <Electronegative Atoms>
4

>  <Stereo Centers>
6

>  <Rotatable Bonds>
5

>  <Rings Closures>
4

>  <Small Rings>
4

>  <Aromatic Rings>
0

>  <Aromatic Atoms>
0

>  <sp3-Atoms>
24

>  <Symmetric atoms>
2

>  <Amides>
0

>  <Amines>
0

>  <Alkyl-Amines>
0

>  <Aromatic Amines>
0

>  <Aromatic Nitrogens>
0

>  <Basic Nitrogens>
0

>  <Acidic Oxygens>
1

>  <Stereo Configuration>
this enantiomer

> <Gold.Version>
5.8.1

> <Gold.Id.Protein>
ID_2|Prot_COX2_5IKQ_Alig|mol2

> <Gold.Goldscore.Fitness>
-39.6022

> <Gold.Goldscore.Internal.Vdw>
-16.8098

> <Gold.Goldscore.Internal.Torsion>
-7.8400

> <Gold.Goldscore.External.Vdw>
-29.8249

> <Gold.Goldscore.Internal.HBond>
0.0000

> <Gold.Goldscore.External.HBond>
3.3314

> <Gold.Goldscore.Internal.Correction>
-22.7255

> <Gold.Goldscore.Hbonds>
donor molecule, donor type, donor heavy atom, donor atom, acceptor molecule, acceptor atom, score
      P1  H  1374  1386       L1    25  0.03
      P1  H  1377  1390       L1    29  0.01
      P1  H  5176  5185       L1    28  0.17
      P1  H  5703  5712       L1     1  0.79
      P1  H  7785  7797       L1    29  0.05

> <Gold.Goldscore.Internal.Vdw.Weighted>
-16.8098

> <Gold.Goldscore.Internal.Torsion.Weighted>
-7.8400

> <Gold.Goldscore.External.Vdw.Weighted>
-41.0093

> <Gold.Goldscore.Internal.HBond.Weighted>
0.0000

> <Gold.Goldscore.External.HBond.Weighted>
3.3314

> <Gold.Goldscore.Internal.Correction.Weighted>
-22.7255

> <Gold.Protein.RotatedTorsions>
[ 5077 5068 5067 5065 ] final  172.33 input  179.94 | X-H torsion
[ 5157 5152 5151 5148 ] final -156.37 input -179.92 | X-H torsion
[ 5185 5176 5175 5173 ] final   14.08 input -179.99 | X-H torsion
[ 5712 5703 5702 5700 ] final  111.35 input  180.00 | X-H torsion
[ 8036 8031 8030 8027 ] final  -72.59 input -179.94 | X-H torsion
[ 2749 2745 2743 2740 ] final  -19.32 input  -60.05 | X-H torsion
[ 1366 1361 1360 1357 ] final  121.84 input  -60.09 | X-H torsion
[ 2556 2551 2550 2547 ] final  100.62 input   59.97 | X-H torsion

> <Gold.Protein.ActiveResidues>
 PRO86   VAL89   HIS90   LEU93   THR94   ILE112  MET113  TYR115  VAL116  LEU117 
 THR118  SER119  ARG120  SER121  LEU123  ILE124  GLN192  SER194  PHE198  PHE201 
 ALA202  GLN203  PHE205  THR206  PHE209  PHE210  VAL228  ILE341  ILE343  VAL344 
 ILE345  GLU346  ASP347  TYR348  VAL349  GLN350  HIS351  LEU352  SER353  GLY354 
 TYR355  PHE357  LEU359  LYS360  GLU380  PHE381  ASN382  THR383  LEU384  TYR385 
 HIS386  TRP387  LEU390  VAL434  LEU507  ARG513  ALA516  ILE517  PHE518  GLY519 
 GLU520  THR521  MET522  VAL523  GLU524  VAL525  GLY526  ALA527  PRO528  PHE529 
 SER530  LEU531  LYS532  GLY533  LEU534  MET535  COH609 

> <Gold.Protein.RotatedAtoms>
   18.5709    6.6365    2.2011 H   0  0  0  0  0  0  0  0  0  0  0  0  # atno 1366 bound_to 1361
    5.0342  -10.0757    6.9013 H   0  0  0  0  0  0  0  0  0  0  0  0  # atno 2556 bound_to 2551
   -3.9882    0.0936    1.1609 H   0  0  0  0  0  0  0  0  0  0  0  0  # atno 2749 bound_to 2745
    1.8553   -1.5049    3.6805 H   0  0  0  0  0  0  0  0  0  0  0  0  # atno 5077 bound_to 5068
   12.0776   -1.3321    9.2456 H   0  0  0  0  0  0  0  0  0  0  0  0  # atno 5157 bound_to 5152
   15.8627   -1.1140    4.6666 H   0  0  0  0  0  0  0  0  0  0  0  0  # atno 5185 bound_to 5176
    3.0322   -0.5293    2.4131 H   0  0  0  0  0  0  0  0  0  0  0  0  # atno 5712 bound_to 5703
    6.0999    4.9623    3.6540 H   0  0  0  0  0  0  0  0  0  0  0  0  # atno 8036 bound_to 8031
    0.4861   -1.9330    4.1314 LP  0  0  0  0  0  0  0  0  0  0  0  0  # atno 8267 bound_to 5068
    1.7766   -2.9335    4.1434 LP  0  0  0  0  0  0  0  0  0  0  0  0  # atno 8268 bound_to 5068
   13.0046   -2.5167    9.1969 LP  0  0  0  0  0  0  0  0  0  0  0  0  # atno 8279 bound_to 5152
   11.3840   -2.6649    9.3328 LP  0  0  0  0  0  0  0  0  0  0  0  0  # atno 8280 bound_to 5152
   16.6129    0.1221    5.0765 LP  0  0  0  0  0  0  0  0  0  0  0  0  # atno 8281 bound_to 5176
   14.9954    0.0991    4.8535 LP  0  0  0  0  0  0  0  0  0  0  0  0  # atno 8282 bound_to 5176
    1.6847   -0.9686    2.9132 LP  0  0  0  0  0  0  0  0  0  0  0  0  # atno 8283 bound_to 5703
    2.0476    0.5915    2.5954 LP  0  0  0  0  0  0  0  0  0  0  0  0  # atno 8284 bound_to 5703
    5.6219    3.5411    3.5455 LP  0  0  0  0  0  0  0  0  0  0  0  0  # atno 8309 bound_to 8031
    4.6713    4.8250    3.2067 LP  0  0  0  0  0  0  0  0  0  0  0  0  # atno 8310 bound_to 8031
   -2.7290   -0.6377    0.7826 LP  0  0  0  0  0  0  0  0  0  0  0  0  # atno 8323 bound_to 2745
   -3.7055    0.0728   -0.3166 LP  0  0  0  0  0  0  0  0  0  0  0  0  # atno 8324 bound_to 2745
   17.4864    7.6739    2.3099 LP  0  0  0  0  0  0  0  0  0  0  0  0  # atno 8335 bound_to 1361
   18.4961    7.3148    3.5421 LP  0  0  0  0  0  0  0  0  0  0  0  0  # atno 8336 bound_to 1361
    5.0523   -9.4982    8.2907 LP  0  0  0  0  0  0  0  0  0  0  0  0  # atno 8342 bound_to 2551
    4.4557   -8.6904    7.0031 LP  0  0  0  0  0  0  0  0  0  0  0  0  # atno 8343 bound_to 2551

