
170|LMW3_p|sdf|170|dock1
  -GOLD-   6 92220 73D 1   1.00000     0.00000

 82 85  0  0  0  0  0  0  0  0  2 V2000
    3.5689   -6.5752   17.7381 O   0  0  0  0  0  0  0  0  0  0  0  0
    3.9810   -7.1541   16.7315 C   0  0  0  0  0  0  0  0  0  0  0  0
    4.1266   -6.4476   15.3789 C   0  0  0  0  0  0  0  0  0  0  0  0
    4.2607   -8.6356   16.7726 C   0  0  0  0  0  0  0  0  0  0  0  0
    5.4913   -6.8769   14.6898 C   0  0  2  0  0  0  0  0  0  0  0  0
    2.8874   -6.7951   14.5240 C   0  0  0  0  0  0  0  0  0  0  0  0
    4.0510   -4.9167   15.6093 C   0  0  0  0  0  0  0  0  0  0  0  0
    5.6317   -8.9451   16.2010 C   0  0  0  0  0  0  0  0  0  0  0  0
    5.8551   -8.4251   14.7571 C   0  0  2  0  0  0  0  0  0  0  0  0
    6.6777   -6.0498   15.2352 C   0  0  0  0  0  0  0  0  0  0  0  0
    7.3470   -8.7176   14.3886 C   0  0  0  0  0  0  0  0  0  0  0  0
    4.9696   -9.2091   13.7594 C   0  0  0  0  0  0  0  0  0  0  0  0
    7.9493   -6.2837   14.4373 C   0  0  0  0  0  0  0  0  0  0  0  0
    8.2671   -7.7335   14.2328 C   0  0  0  0  0  0  0  0  0  0  0  0
    7.7484  -10.1941   14.2015 C   0  0  0  0  0  0  0  0  0  0  0  0
    9.7248   -8.0647   13.9255 C   0  0  1  0  0  0  0  0  0  0  0  0
    9.2076  -10.5021   13.7960 C   0  0  0  0  0  0  0  0  0  0  0  0
    9.8202   -9.3376   13.0113 C   0  0  2  0  0  0  0  0  0  0  0  0
   10.5551   -7.0638   13.0998 C   0  0  0  0  0  0  0  0  0  0  0  0
   10.4028   -8.2037   15.3258 C   0  0  0  0  0  0  0  0  0  0  0  0
   11.3553   -9.4055   12.7238 C   0  0  2  0  0  0  0  0  0  0  0  0
    9.0436   -9.1882   11.6621 C   0  0  0  0  0  0  0  0  0  0  0  0
   11.7231   -7.9019   12.5331 C   0  0  2  0  0  0  0  0  0  0  0  0
   11.8208  -10.3091   11.5456 C   0  0  2  0  0  0  0  0  0  0  0  0
   12.9026   -7.5749   13.2595 O   0  0  0  0  0  0  0  0  0  0  0  0
   11.5782  -11.7602   11.8991 C   0  0  0  0  0  0  0  0  0  0  0  0
   13.3195  -10.1437   11.2124 C   0  0  0  0  0  0  0  0  0  0  0  0
   12.1318  -12.3982   12.7783 O   0  0  0  0  0  0  0  0  0  0  0  0
   10.6605  -12.3410   11.1039 O   0  5  0  0  0  0  0  0  0  0  0  0
   13.7780  -11.0390   10.0484 C   0  0  0  0  0  0  0  0  0  0  0  0
   15.0750  -10.5577    9.4204 C   0  0  0  0  0  0  0  0  0  0  0  0
   16.1742  -10.4416   10.1881 C   0  0  0  0  0  0  0  0  0  0  0  0
   15.0090  -10.1691    7.9421 C   0  0  0  0  0  0  0  0  0  0  0  0
   14.4475   -8.7553    7.7605 C   0  0  0  0  0  0  0  0  0  0  0  0
   14.2231  -11.1382    7.0479 C   0  0  0  0  0  0  0  0  0  0  0  0
    3.5179   -9.1482   16.1978 H   0  0  0  0  0  0  0  0  0  0  0  0
    4.2347   -8.9597   17.7920 H   0  0  0  0  0  0  0  0  0  0  0  0
    5.3205   -6.6682   13.6543 H   0  0  0  0  0  0  0  0  0  0  0  0
    2.5046   -7.7489   14.8219 H   0  0  0  0  0  0  0  0  0  0  0  0
    3.1647   -6.8288   13.4911 H   0  0  0  0  0  0  0  0  0  0  0  0
    2.1346   -6.0482   14.6670 H   0  0  0  0  0  0  0  0  0  0  0  0
    3.0736   -4.6564   15.9582 H   0  0  0  0  0  0  0  0  0  0  0  0
    4.2486   -4.4074   14.6893 H   0  0  0  0  0  0  0  0  0  0  0  0
    4.7786   -4.6295   16.3393 H   0  0  0  0  0  0  0  0  0  0  0  0
    5.7614  -10.0072   16.1982 H   0  0  0  0  0  0  0  0  0  0  0  0
    6.3426   -8.4402   16.8212 H   0  0  0  0  0  0  0  0  0  0  0  0
    6.8530   -6.3273   16.2536 H   0  0  0  0  0  0  0  0  0  0  0  0
    6.4228   -5.0137   15.1545 H   0  0  0  0  0  0  0  0  0  0  0  0
    5.0388  -10.2564   13.9677 H   0  0  0  0  0  0  0  0  0  0  0  0
    5.3050   -9.0212   12.7608 H   0  0  0  0  0  0  0  0  0  0  0  0
    3.9526   -8.8919   13.8596 H   0  0  0  0  0  0  0  0  0  0  0  0
    8.7651   -5.8282   14.9587 H   0  0  0  0  0  0  0  0  0  0  0  0
    7.7972   -5.8546   13.4690 H   0  0  0  0  0  0  0  0  0  0  0  0
    7.1141  -10.6029   13.4428 H   0  0  0  0  0  0  0  0  0  0  0  0
    7.6442  -10.6255   15.1751 H   0  0  0  0  0  0  0  0  0  0  0  0
    9.2226  -11.3808   13.1857 H   0  0  0  0  0  0  0  0  0  0  0  0
    9.7828  -10.6519   14.6857 H   0  0  0  0  0  0  0  0  0  0  0  0
   10.9231   -6.2746   13.7216 H   0  0  0  0  0  0  0  0  0  0  0  0
    9.9788   -6.5967   12.3287 H   0  0  0  0  0  0  0  0  0  0  0  0
   10.4456   -7.2446   15.7981 H   0  0  0  0  0  0  0  0  0  0  0  0
   11.3947   -8.5866   15.2054 H   0  0  0  0  0  0  0  0  0  0  0  0
    9.8325   -8.8753   15.9331 H   0  0  0  0  0  0  0  0  0  0  0  0
   11.8694   -9.8963   13.5236 H   0  0  0  0  0  0  0  0  0  0  0  0
    8.0593   -8.8162   11.8564 H   0  0  0  0  0  0  0  0  0  0  0  0
    8.9760  -10.1420   11.1818 H   0  0  0  0  0  0  0  0  0  0  0  0
    9.5640   -8.5041   11.0248 H   0  0  0  0  0  0  0  0  0  0  0  0
   11.8924   -7.7026   11.4956 H   0  0  0  0  0  0  0  0  0  0  0  0
   11.2553  -10.0090   10.6883 H   0  0  0  0  0  0  0  0  0  0  0  0
   13.6313   -8.1439   12.9659 H   0  0  0  0  0  0  0  0  0  0  0  0
   13.8918  -10.3940   12.0811 H   0  0  0  0  0  0  0  0  0  0  0  0
   13.4712   -9.1274   10.9139 H   0  0  0  0  0  0  0  0  0  0  0  0
   13.0148  -11.0445    9.2984 H   0  0  0  0  0  0  0  0  0  0  0  0
   13.9509  -12.0194   10.4408 H   0  0  0  0  0  0  0  0  0  0  0  0
   16.1432  -10.7248   11.1799 H   0  0  0  0  0  0  0  0  0  0  0  0
   17.0481  -10.0693    9.7849 H   0  0  0  0  0  0  0  0  0  0  0  0
   16.0280  -10.2148    7.6187 H   0  0  0  0  0  0  0  0  0  0  0  0
   14.3997   -8.5217    6.7174 H   0  0  0  0  0  0  0  0  0  0  0  0
   15.0849   -8.0521    8.2547 H   0  0  0  0  0  0  0  0  0  0  0  0
   13.4656   -8.7045    8.1825 H   0  0  0  0  0  0  0  0  0  0  0  0
   14.3358  -12.1358    7.4178 H   0  0  0  0  0  0  0  0  0  0  0  0
   14.5984  -11.0843    6.0473 H   0  0  0  0  0  0  0  0  0  0  0  0
   13.1873  -10.8700    7.0552 H   0  0  0  0  0  0  0  0  0  0  0  0
  1  2  2  0  0  0  0
  2  3  1  0  0  0  0
  2  4  1  0  0  0  0
  3  5  1  0  0  0  0
  3  6  1  0  0  0  0
  3  7  1  0  0  0  0
  4  8  1  0  0  0  0
  4 36  1  0  0  0  0
  4 37  1  0  0  0  0
  5  9  1  0  0  0  0
  5 10  1  0  0  0  0
  5 38  1  0  0  0  0
  6 39  1  0  0  0  0
  6 40  1  0  0  0  0
  6 41  1  0  0  0  0
  7 42  1  0  0  0  0
  7 43  1  0  0  0  0
  7 44  1  0  0  0  0
  8  9  1  0  0  0  0
  8 45  1  0  0  0  0
  8 46  1  0  0  0  0
  9 11  1  0  0  0  0
  9 12  1  0  0  0  0
 10 13  1  0  0  0  0
 10 47  1  0  0  0  0
 10 48  1  0  0  0  0
 11 14  2  0  0  0  0
 11 15  1  0  0  0  0
 12 49  1  0  0  0  0
 12 50  1  0  0  0  0
 12 51  1  0  0  0  0
 13 14  1  0  0  0  0
 13 52  1  0  0  0  0
 13 53  1  0  0  0  0
 14 16  1  0  0  0  0
 15 17  1  0  0  0  0
 15 54  1  0  0  0  0
 15 55  1  0  0  0  0
 16 18  1  0  0  0  0
 16 19  1  0  0  0  0
 16 20  1  0  0  0  0
 17 18  1  0  0  0  0
 17 56  1  0  0  0  0
 17 57  1  0  0  0  0
 18 21  1  0  0  0  0
 18 22  1  0  0  0  0
 19 23  1  0  0  0  0
 19 58  1  0  0  0  0
 19 59  1  0  0  0  0
 20 60  1  0  0  0  0
 20 61  1  0  0  0  0
 20 62  1  0  0  0  0
 21 24  1  0  0  0  0
 21 23  1  0  0  0  0
 21 63  1  0  0  0  0
 22 64  1  0  0  0  0
 22 65  1  0  0  0  0
 22 66  1  0  0  0  0
 23 25  1  0  0  0  0
 23 67  1  0  0  0  0
 24 26  1  0  0  0  0
 24 27  1  0  0  0  0
 24 68  1  0  0  0  0
 25 69  1  0  0  0  0
 26 28  2  0  0  0  0
 26 29  1  0  0  0  0
 27 30  1  0  0  0  0
 27 70  1  0  0  0  0
 27 71  1  0  0  0  0
 30 31  1  0  0  0  0
 30 72  1  0  0  0  0
 30 73  1  0  0  0  0
 31 32  2  0  0  0  0
 31 33  1  0  0  0  0
 32 74  1  0  0  0  0
 32 75  1  0  0  0  0
 33 34  1  0  0  0  0
 33 35  1  0  0  0  0
 33 76  1  0  0  0  0
 34 77  1  0  0  0  0
 34 78  1  0  0  0  0
 34 79  1  0  0  0  0
 35 80  1  0  0  0  0
 35 81  1  0  0  0  0
 35 82  1  0  0  0  0
M  CHG  1  29  -1
M  END
>  <Code-name>
170

>  <Compound>
22E-5α-Ergost-7,9(11),22-trien-3β-ol

>  <Specie>
Fomitopsis pinicola

>  <Reference>
Mehreen Zeb and Chow H. Lee, 2041

>  <Organism>
Antimicrobial Activity

>  <Smiles>
CC(C)C(CC[C@H]([C@@H]([C@@H](C1)O)[C@@](C)(CC2)[C@]1(C)C(CC1)=C2[C@@](C)(CC2)[C@H]1C(C)(C)C2=O)C(O)=O)=C

>  <MMFF94 Energy>
97.467

>  <Total Molweight>
484.718

>  <Molweight>
484.718

>  <Monoisotopic Mass>
484.355260

>  <cLogP>
6.7219

>  <cLogS>
-5.907

>  <H-Acceptors>
4

>  <H-Donors>
2

>  <Total Surface Area>
367.17

>  <Relative PSA>
0.14239

>  <Polar Surface Area>
74.6

>  <Druglikeness>
-8.5706

>  <Mutagenic>
none

>  <Tumorigenic>
none

>  <Reproductive Effective>
none

>  <Irritant>
none

>  <Nasty Functions>


>  <Shape Index>
0.45714

>  <Molecular Flexibility>
0.35041

>  <Molecular Complexity>
1.0239

>  <Fragments>
1

>  <Non-H Atoms>
35

>  <Non-C/H Atoms>
4

>  <Metal-Atoms>
0

>  <Electronegative Atoms>
4

>  <Stereo Centers>
7

>  <Rotatable Bonds>
6

>  <Rings Closures>
4

>  <Small Rings>
4

>  <Aromatic Rings>
0

>  <Aromatic Atoms>
0

>  <sp3-Atoms>
27

>  <Symmetric atoms>
2

>  <Amides>
0

>  <Amines>
0

>  <Alkyl-Amines>
0

>  <Aromatic Amines>
0

>  <Aromatic Nitrogens>
0

>  <Basic Nitrogens>
0

>  <Acidic Oxygens>
1

>  <Stereo Configuration>
this enantiomer

> <Gold.Version>
5.8.1

> <Gold.Id.Protein>
ID_2|Prot_COX2_5IKQ_Alig|mol2

> <Gold.Goldscore.Fitness>
35.1002

> <Gold.Goldscore.Internal.Vdw>
-26.3205

> <Gold.Goldscore.Internal.Torsion>
-7.7850

> <Gold.Goldscore.External.Vdw>
26.0729

> <Gold.Goldscore.Internal.HBond>
0.0000

> <Gold.Goldscore.External.HBond>
0.0000

> <Gold.Goldscore.Internal.Correction>
-33.3555

> <Gold.Goldscore.Internal.Vdw.Weighted>
-26.3205

> <Gold.Goldscore.Internal.Torsion.Weighted>
-7.7850

> <Gold.Goldscore.External.Vdw.Weighted>
35.8502

> <Gold.Goldscore.Internal.HBond.Weighted>
0.0000

> <Gold.Goldscore.External.HBond.Weighted>
0.0000

> <Gold.Goldscore.Internal.Correction.Weighted>
-33.3555

> <Gold.Protein.RotatedTorsions>
[ 5077 5068 5067 5065 ] final -179.94 input  179.94 | X-H torsion
[ 5157 5152 5151 5148 ] final    6.40 input -179.92 | X-H torsion
[ 5185 5176 5175 5173 ] final  -71.73 input -179.99 | X-H torsion
[ 5712 5703 5702 5700 ] final   64.77 input  180.00 | X-H torsion
[ 8036 8031 8030 8027 ] final -122.44 input -179.94 | X-H torsion
[ 2749 2745 2743 2740 ] final  -50.29 input  -60.05 | X-H torsion
[ 1366 1361 1360 1357 ] final    4.59 input  -60.09 | X-H torsion
[ 2556 2551 2550 2547 ] final   40.30 input   59.97 | X-H torsion

> <Gold.Protein.ActiveResidues>
 PRO86   VAL89   HIS90   LEU93   THR94   ILE112  MET113  TYR115  VAL116  LEU117 
 THR118  SER119  ARG120  SER121  LEU123  ILE124  GLN192  SER194  PHE198  PHE201 
 ALA202  GLN203  PHE205  THR206  PHE209  PHE210  VAL228  ILE341  ILE343  VAL344 
 ILE345  GLU346  ASP347  TYR348  VAL349  GLN350  HIS351  LEU352  SER353  GLY354 
 TYR355  PHE357  LEU359  LYS360  GLU380  PHE381  ASN382  THR383  LEU384  TYR385 
 HIS386  TRP387  LEU390  VAL434  LEU507  ARG513  ALA516  ILE517  PHE518  GLY519 
 GLU520  THR521  MET522  VAL523  GLU524  VAL525  GLY526  ALA527  PRO528  PHE529 
 SER530  LEU531  LYS532  GLY533  LEU534  MET535  COH609 

> <Gold.Protein.RotatedAtoms>
   17.6345    7.6013    2.3183 H   0  0  0  0  0  0  0  0  0  0  0  0  # atno 1366 bound_to 1361
    5.1839  -10.1112    7.6805 H   0  0  0  0  0  0  0  0  0  0  0  0  # atno 2556 bound_to 2551
   -3.6745   -0.1135    1.3522 H   0  0  0  0  0  0  0  0  0  0  0  0  # atno 2749 bound_to 2745
    1.9352   -1.5752    3.6841 H   0  0  0  0  0  0  0  0  0  0  0  0  # atno 5077 bound_to 5068
   11.9834   -2.8927    9.2348 H   0  0  0  0  0  0  0  0  0  0  0  0  # atno 5157 bound_to 5152
   16.6040   -0.4006    4.9709 H   0  0  0  0  0  0  0  0  0  0  0  0  # atno 5185 bound_to 5176
    2.6747   -1.0107    2.5829 H   0  0  0  0  0  0  0  0  0  0  0  0  # atno 5712 bound_to 5703
    6.2423    4.3153    3.7081 H   0  0  0  0  0  0  0  0  0  0  0  0  # atno 8036 bound_to 8031
    0.5062   -1.8159    4.0858 LP  0  0  0  0  0  0  0  0  0  0  0  0  # atno 8267 bound_to 5068
    1.6608   -2.9664    4.1846 LP  0  0  0  0  0  0  0  0  0  0  0  0  # atno 8268 bound_to 5068
   11.4551   -1.4875    9.3409 LP  0  0  0  0  0  0  0  0  0  0  0  0  # atno 8279 bound_to 5152
   13.0462   -1.8276    9.2017 LP  0  0  0  0  0  0  0  0  0  0  0  0  # atno 8280 bound_to 5152
   15.3769    0.4662    5.0101 LP  0  0  0  0  0  0  0  0  0  0  0  0  # atno 8281 bound_to 5176
   15.3414   -1.1016    4.5547 LP  0  0  0  0  0  0  0  0  0  0  0  0  # atno 8282 bound_to 5176
    1.4018   -0.2783    2.9022 LP  0  0  0  0  0  0  0  0  0  0  0  0  # atno 8283 bound_to 5703
    2.7596    0.4789    2.4027 LP  0  0  0  0  0  0  0  0  0  0  0  0  # atno 8284 bound_to 5703
    4.9030    3.7716    3.2949 LP  0  0  0  0  0  0  0  0  0  0  0  0  # atno 8309 bound_to 8031
    5.2193    5.3707    3.3924 LP  0  0  0  0  0  0  0  0  0  0  0  0  # atno 8310 bound_to 8031
   -2.7228   -0.5758    0.2826 LP  0  0  0  0  0  0  0  0  0  0  0  0  # atno 8323 bound_to 2745
   -4.0874    0.2589   -0.0457 LP  0  0  0  0  0  0  0  0  0  0  0  0  # atno 8324 bound_to 2745
   18.4662    7.3456    3.5458 LP  0  0  0  0  0  0  0  0  0  0  0  0  # atno 8335 bound_to 1361
   18.6363    6.4890    2.1660 LP  0  0  0  0  0  0  0  0  0  0  0  0  # atno 8336 bound_to 1361
    4.6322   -8.7323    7.9221 LP  0  0  0  0  0  0  0  0  0  0  0  0  # atno 8342 bound_to 2551
    4.6966   -9.4138    6.4395 LP  0  0  0  0  0  0  0  0  0  0  0  0  # atno 8343 bound_to 2551

