
172|LMW3_p|sdf|172|dock4
  -GOLD-   61022 0303D 1   1.00000     0.00000

 24 26  0  0  0  0  0  0  0  0  1 V2000
   12.4544    3.2643    4.1651 O   0  0  0  0  0  0  0  0  0  0  0  0
   11.9536    2.1499    4.0370 C   0  0  0  0  0  0  0  0  0  0  0  0
   10.4706    1.9738    3.8528 C   0  0  0  0  0  0  0  0  0  0  0  0
   12.8005    0.9475    4.0607 C   0  0  0  0  0  0  0  0  0  0  0  0
    9.7153    3.1171    3.8360 N   0  0  0  0  0  0  0  0  0  0  0  0
    9.9754    0.7389    3.7178 C   0  0  0  0  0  0  0  0  0  0  0  0
   12.2882   -0.2768    3.9244 C   0  0  0  0  0  0  0  0  0  0  0  0
   10.8228   -0.4724    3.7411 C   0  0  0  0  0  0  0  0  0  0  0  0
   13.1201   -1.3867    3.9521 O   0  0  0  0  0  0  0  0  0  0  0  0
   10.2670   -1.6361    3.6035 N   0  0  0  0  0  0  0  0  0  0  0  0
   12.5161   -2.6139    3.8049 C   0  0  0  0  0  0  0  0  0  0  0  0
   11.1305   -2.7446    3.6351 C   0  0  0  0  0  0  0  0  0  0  0  0
   13.3450   -3.7363    3.8316 C   0  0  0  0  0  0  0  0  0  0  0  0
   10.5888   -4.0231    3.4919 C   0  0  0  0  0  0  0  0  0  0  0  0
   12.7904   -5.0076    3.6874 C   0  0  0  0  0  0  0  0  0  0  0  0
   11.4131   -5.1513    3.5177 C   0  0  0  0  0  0  0  0  0  0  0  0
   13.8192    1.0539    4.1863 H   0  0  0  0  0  0  0  0  0  0  0  0
   10.1486    3.9949    3.9414 H   0  0  0  0  0  0  0  0  0  0  0  0
    8.7395    3.0608    3.7185 H   0  0  0  0  0  0  0  0  0  0  0  0
    8.9573    0.6266    3.5919 H   0  0  0  0  0  0  0  0  0  0  0  0
   14.3634   -3.6260    3.9574 H   0  0  0  0  0  0  0  0  0  0  0  0
    9.5708   -4.1361    3.3660 H   0  0  0  0  0  0  0  0  0  0  0  0
   13.3982   -5.8414    3.7062 H   0  0  0  0  0  0  0  0  0  0  0  0
   11.0024   -6.0921    3.4110 H   0  0  0  0  0  0  0  0  0  0  0  0
  1  2  2  0  0  0  0
  2  3  1  0  0  0  0
  2  4  1  0  0  0  0
  3  5  1  0  0  0  0
  3  6  2  0  0  0  0
  4  7  2  0  0  0  0
  4 17  1  0  0  0  0
  5 18  1  0  0  0  0
  5 19  1  0  0  0  0
  6  8  1  0  0  0  0
  6 20  1  0  0  0  0
  7  9  1  0  0  0  0
  7  8  1  0  0  0  0
  8 10  2  0  0  0  0
  9 11  1  0  0  0  0
 10 12  1  0  0  0  0
 11 13  1  0  0  0  0
 11 12  2  0  0  0  0
 12 14  1  0  0  0  0
 13 15  2  0  0  0  0
 13 21  1  0  0  0  0
 14 16  2  0  0  0  0
 14 22  1  0  0  0  0
 15 16  1  0  0  0  0
 15 23  1  0  0  0  0
 16 24  1  0  0  0  0
M  END
>  <Code-name>
172

>  <Compound>
2-Aminophenoxazin-3-one

>  <Specie>
Lepiota americana

>  <Reference>
ZAIDMAN et al., 2005;

>  <Organism>
Aromatase inhibitor

>  <Smiles>
NC1=CC2=Nc(cccc3)c3OC2=CC1=O

>  <MMFF94 Energy>
63.045

>  <Total Molweight>
212.208

>  <Molweight>
212.208

>  <Monoisotopic Mass>
212.058578

>  <cLogP>
0.4894

>  <cLogS>
-2.525

>  <H-Acceptors>
4

>  <H-Donors>
1

>  <Total Surface Area>
154.92

>  <Relative PSA>
0.32159

>  <Polar Surface Area>
64.68

>  <Druglikeness>
-0.0015

>  <Mutagenic>
high

>  <Tumorigenic>
none

>  <Reproductive Effective>
none

>  <Irritant>
none

>  <Nasty Functions>


>  <Shape Index>
0.5625

>  <Molecular Flexibility>
0.11361

>  <Molecular Complexity>
0.78935

>  <Fragments>
1

>  <Non-H Atoms>
16

>  <Non-C/H Atoms>
4

>  <Metal-Atoms>
0

>  <Electronegative Atoms>
4

>  <Stereo Centers>
0

>  <Rotatable Bonds>
0

>  <Rings Closures>
3

>  <Small Rings>
3

>  <Aromatic Rings>
1

>  <Aromatic Atoms>
6

>  <sp3-Atoms>
1

>  <Symmetric atoms>
0

>  <Amides>
0

>  <Amines>
0

>  <Alkyl-Amines>
0

>  <Aromatic Amines>
0

>  <Aromatic Nitrogens>
0

>  <Basic Nitrogens>
0

>  <Acidic Oxygens>
0

>  <Stereo Configuration>


> <Gold.Version>
5.8.1

> <Gold.Id.Protein>
ID_2|Prot_COX2_5IKQ_Alig|mol2

> <Gold.Goldscore.Fitness>
45.7993

> <Gold.Goldscore.Internal.Vdw>
-0.0000

> <Gold.Goldscore.Internal.Torsion>
-0.0000

> <Gold.Goldscore.External.Vdw>
31.9393

> <Gold.Goldscore.Internal.HBond>
0.0000

> <Gold.Goldscore.External.HBond>
1.8827

> <Gold.Goldscore.Internal.Correction>
0.0000

> <Gold.Goldscore.Hbonds>
donor molecule, donor type, donor heavy atom, donor atom, acceptor molecule, acceptor atom, score
      P1  H  5176  5185       L1     9  0.94

> <Gold.Goldscore.Internal.Vdw.Weighted>
-0.0000

> <Gold.Goldscore.Internal.Torsion.Weighted>
-0.0000

> <Gold.Goldscore.External.Vdw.Weighted>
43.9165

> <Gold.Goldscore.Internal.HBond.Weighted>
0.0000

> <Gold.Goldscore.External.HBond.Weighted>
1.8827

> <Gold.Goldscore.Internal.Correction.Weighted>
0.0000

> <Gold.Protein.RotatedTorsions>
[ 5077 5068 5067 5065 ] final  156.48 input  179.94 | X-H torsion
[ 5157 5152 5151 5148 ] final  -52.22 input -179.92 | X-H torsion
[ 5185 5176 5175 5173 ] final   81.54 input -179.99 | X-H torsion
[ 5712 5703 5702 5700 ] final  128.51 input  180.00 | X-H torsion
[ 8036 8031 8030 8027 ] final -147.03 input -179.94 | X-H torsion
[ 2749 2745 2743 2740 ] final  -34.77 input  -60.05 | X-H torsion
[ 1366 1361 1360 1357 ] final -167.92 input  -60.09 | X-H torsion
[ 2556 2551 2550 2547 ] final -117.67 input   59.97 | X-H torsion

> <Gold.Protein.ActiveResidues>
 PRO86   VAL89   HIS90   LEU93   THR94   ILE112  MET113  TYR115  VAL116  LEU117 
 THR118  SER119  ARG120  SER121  LEU123  ILE124  GLN192  SER194  PHE198  PHE201 
 ALA202  GLN203  PHE205  THR206  PHE209  PHE210  VAL228  ILE341  ILE343  VAL344 
 ILE345  GLU346  ASP347  TYR348  VAL349  GLN350  HIS351  LEU352  SER353  GLY354 
 TYR355  PHE357  LEU359  LYS360  GLU380  PHE381  ASN382  THR383  LEU384  TYR385 
 HIS386  TRP387  LEU390  VAL434  LEU507  ARG513  ALA516  ILE517  PHE518  GLY519 
 GLU520  THR521  MET522  VAL523  GLU524  VAL525  GLY526  ALA527  PRO528  PHE529 
 SER530  LEU531  LYS532  GLY533  LEU534  MET535  COH609 

> <Gold.Protein.RotatedAtoms>
   18.8029    6.8410    3.0563 H   0  0  0  0  0  0  0  0  0  0  0  0  # atno 1366 bound_to 1361
    4.4977   -8.7582    7.3554 H   0  0  0  0  0  0  0  0  0  0  0  0  # atno 2556 bound_to 2551
   -3.8444   -0.0057    1.2817 H   0  0  0  0  0  0  0  0  0  0  0  0  # atno 2749 bound_to 2745
    1.6680   -1.3946    3.6908 H   0  0  0  0  0  0  0  0  0  0  0  0  # atno 5077 bound_to 5068
   11.4048   -2.3816    9.2901 H   0  0  0  0  0  0  0  0  0  0  0  0  # atno 5157 bound_to 5152
   15.1171   -0.6569    4.6983 H   0  0  0  0  0  0  0  0  0  0  0  0  # atno 5185 bound_to 5176
    3.0510   -0.2979    2.3762 H   0  0  0  0  0  0  0  0  0  0  0  0  # atno 5712 bound_to 5703
    6.1126    4.0085    3.6655 H   0  0  0  0  0  0  0  0  0  0  0  0  # atno 8036 bound_to 8031
    0.4968   -2.1795    4.2137 LP  0  0  0  0  0  0  0  0  0  0  0  0  # atno 8267 bound_to 5068
    1.9902   -2.8191    4.0488 LP  0  0  0  0  0  0  0  0  0  0  0  0  # atno 8268 bound_to 5068
   12.3277   -1.1930    9.2703 LP  0  0  0  0  0  0  0  0  0  0  0  0  # atno 8279 bound_to 5152
   12.8656   -2.7335    9.2061 LP  0  0  0  0  0  0  0  0  0  0  0  0  # atno 8280 bound_to 5152
   16.6001   -0.8846    4.7854 LP  0  0  0  0  0  0  0  0  0  0  0  0  # atno 8281 bound_to 5176
   15.9035    0.5570    5.1066 LP  0  0  0  0  0  0  0  0  0  0  0  0  # atno 8282 bound_to 5176
    1.9065   -1.1367    2.8713 LP  0  0  0  0  0  0  0  0  0  0  0  0  # atno 8283 bound_to 5703
    1.8031    0.4819    2.6817 LP  0  0  0  0  0  0  0  0  0  0  0  0  # atno 8284 bound_to 5703
    4.6810    4.0969    3.2155 LP  0  0  0  0  0  0  0  0  0  0  0  0  # atno 8309 bound_to 8031
    5.5970    5.4134    3.5229 LP  0  0  0  0  0  0  0  0  0  0  0  0  # atno 8310 bound_to 8031
   -2.6962   -0.6238    0.5314 LP  0  0  0  0  0  0  0  0  0  0  0  0  # atno 8323 bound_to 2745
   -3.9104    0.1777   -0.2101 LP  0  0  0  0  0  0  0  0  0  0  0  0  # atno 8324 bound_to 2745
   18.0165    6.8923    1.7745 LP  0  0  0  0  0  0  0  0  0  0  0  0  # atno 8335 bound_to 1361
   17.6884    7.8518    3.0544 LP  0  0  0  0  0  0  0  0  0  0  0  0  # atno 8336 bound_to 1361
    4.9691   -9.9510    6.5686 LP  0  0  0  0  0  0  0  0  0  0  0  0  # atno 8342 bound_to 2551
    5.1808   -9.8138    8.1820 LP  0  0  0  0  0  0  0  0  0  0  0  0  # atno 8343 bound_to 2551

