
186|LMW3_p|sdf|186|dock4
  -GOLD-   61022 2253D 1   1.00000     0.00000

 82 85  0  0  0  0  0  0  0  0  1 V2000
    5.6011    0.2021   -1.2522 O   0  0  0  0  0  0  0  0  0  0  0  0
    6.1332    0.1641   -0.1412 C   0  0  0  0  0  0  0  0  0  0  0  0
    6.9304   -1.0532    0.3482 C   0  0  0  0  0  0  0  0  0  0  0  0
    5.9109    1.2909    0.8340 C   0  0  0  0  0  0  0  0  0  0  0  0
    8.1934   -0.5645    1.1381 C   0  0  1  0  0  0  0  0  0  0  0  0
    7.3874   -1.8480   -0.9025 C   0  0  0  0  0  0  0  0  0  0  0  0
    5.9743   -1.9654    1.1309 C   0  0  0  0  0  0  0  0  0  0  0  0
    7.2210    1.7412    1.4591 C   0  0  0  0  0  0  0  0  0  0  0  0
    7.9988    0.6027    2.1736 C   0  0  2  0  0  0  0  0  0  0  0  0
    9.0042   -1.7135    1.7707 C   0  0  0  0  0  0  0  0  0  0  0  0
    9.3964    1.0798    2.6715 C   0  0  0  0  0  0  0  0  0  0  0  0
    7.2324    0.1914    3.4544 C   0  0  0  0  0  0  0  0  0  0  0  0
   10.2774   -1.2057    2.3710 C   0  0  0  0  0  0  0  0  0  0  0  0
   10.4839    0.0752    2.7237 C   0  0  0  0  0  0  0  0  0  0  0  0
    9.6252    2.3385    3.1174 C   0  0  0  0  0  0  0  0  0  0  0  0
   11.8597    0.5966    3.1383 C   0  0  1  0  0  0  0  0  0  0  0  0
   10.8935    2.8119    3.7966 C   0  0  0  0  0  0  0  0  0  0  0  0
   11.7236    1.6251    4.3189 C   0  0  2  0  0  0  0  0  0  0  0  0
   12.8873   -0.3871    3.7243 C   0  0  0  0  0  0  0  0  0  0  0  0
   12.4914    1.1749    1.8301 C   0  0  0  0  0  0  0  0  0  0  0  0
   13.2176    1.9072    4.6680 C   0  0  2  0  0  0  0  0  0  0  0  0
   11.0038    1.0214    5.5684 C   0  0  0  0  0  0  0  0  0  0  0  0
   13.8668    0.4973    4.5164 C   0  0  0  0  0  0  0  0  0  0  0  0
   13.5905    2.5812    6.0247 C   0  0  1  0  0  0  0  0  0  0  0  0
   15.1346    2.6073    6.2035 C   0  0  0  0  0  0  0  0  0  0  0  0
   13.0241    4.0012    6.1330 C   0  0  0  0  0  0  0  0  0  0  0  0
   15.8670    3.4999    5.1852 C   0  0  0  0  0  0  0  0  0  0  0  0
   17.3271    3.0589    4.9687 C   0  0  2  0  0  0  0  0  0  0  0  0
   18.0049    3.1570    6.2302 O   0  0  0  0  0  0  0  0  0  0  0  0
   18.1091    3.9081    3.9259 C   0  0  2  0  0  0  0  0  0  0  0  0
   17.2504    4.1143    2.7848 O   0  0  0  0  0  0  0  0  0  0  0  0
   19.4000    3.2157    3.4437 C   0  0  0  0  0  0  0  0  0  0  0  0
   18.4188    5.3033    4.4922 C   0  0  0  0  0  0  0  0  0  0  0  0
   19.9901    3.9611    2.3731 O   0  0  0  0  0  0  0  0  0  0  0  0
    5.2509    0.9581    1.6076 H   0  0  0  0  0  0  0  0  0  0  0  0
    5.4849    2.1180    0.3057 H   0  0  0  0  0  0  0  0  0  0  0  0
    8.7598   -0.1230    0.3449 H   0  0  0  0  0  0  0  0  0  0  0  0
    6.5373   -2.0736   -1.5119 H   0  0  0  0  0  0  0  0  0  0  0  0
    7.8573   -2.7586   -0.5945 H   0  0  0  0  0  0  0  0  0  0  0  0
    8.0828   -1.2601   -1.4642 H   0  0  0  0  0  0  0  0  0  0  0  0
    6.1572   -1.8578    2.1796 H   0  0  0  0  0  0  0  0  0  0  0  0
    6.1367   -2.9830    0.8430 H   0  0  0  0  0  0  0  0  0  0  0  0
    4.9629   -1.6908    0.9152 H   0  0  0  0  0  0  0  0  0  0  0  0
    7.0073    2.5056    2.1766 H   0  0  0  0  0  0  0  0  0  0  0  0
    7.8430    2.0904    0.6615 H   0  0  0  0  0  0  0  0  0  0  0  0
    9.2370   -2.4345    1.0152 H   0  0  0  0  0  0  0  0  0  0  0  0
    8.4161   -2.1585    2.5459 H   0  0  0  0  0  0  0  0  0  0  0  0
    6.2337   -0.0931    3.1966 H   0  0  0  0  0  0  0  0  0  0  0  0
    7.2038    1.0176    4.1338 H   0  0  0  0  0  0  0  0  0  0  0  0
    7.7301   -0.6346    3.9181 H   0  0  0  0  0  0  0  0  0  0  0  0
   11.0438   -1.8798    2.5237 H   0  0  0  0  0  0  0  0  0  0  0  0
    8.8729    3.0323    2.9831 H   0  0  0  0  0  0  0  0  0  0  0  0
   10.6332    3.4444    4.6194 H   0  0  0  0  0  0  0  0  0  0  0  0
   11.4816    3.3464    3.0800 H   0  0  0  0  0  0  0  0  0  0  0  0
   13.3982   -0.9094    2.9425 H   0  0  0  0  0  0  0  0  0  0  0  0
   12.4286   -1.1337    4.3383 H   0  0  0  0  0  0  0  0  0  0  0  0
   11.7141    1.5209    1.1814 H   0  0  0  0  0  0  0  0  0  0  0  0
   13.0532    0.4095    1.3368 H   0  0  0  0  0  0  0  0  0  0  0  0
   13.1391    1.9900    2.0769 H   0  0  0  0  0  0  0  0  0  0  0  0
   13.5752    2.6793    4.0192 H   0  0  0  0  0  0  0  0  0  0  0  0
   10.0726    0.5878    5.2687 H   0  0  0  0  0  0  0  0  0  0  0  0
   10.8227    1.7957    6.2844 H   0  0  0  0  0  0  0  0  0  0  0  0
   11.6234    0.2676    6.0074 H   0  0  0  0  0  0  0  0  0  0  0  0
   14.7937    0.5781    3.9879 H   0  0  0  0  0  0  0  0  0  0  0  0
   14.0635    0.0703    5.4776 H   0  0  0  0  0  0  0  0  0  0  0  0
   13.1510    1.9971    6.8061 H   0  0  0  0  0  0  0  0  0  0  0  0
   15.5023    1.6077    6.1007 H   0  0  0  0  0  0  0  0  0  0  0  0
   15.3276    3.0192    7.1720 H   0  0  0  0  0  0  0  0  0  0  0  0
   13.3483    4.5795    5.2932 H   0  0  0  0  0  0  0  0  0  0  0  0
   13.3737    4.4567    7.0359 H   0  0  0  0  0  0  0  0  0  0  0  0
   11.9551    3.9588    6.1456 H   0  0  0  0  0  0  0  0  0  0  0  0
   15.8611    4.5080    5.5438 H   0  0  0  0  0  0  0  0  0  0  0  0
   15.3564    3.4167    4.2485 H   0  0  0  0  0  0  0  0  0  0  0  0
   17.2971    2.0617    4.5820 H   0  0  0  0  0  0  0  0  0  0  0  0
   17.6946    2.4518    6.8196 H   0  0  0  0  0  0  0  0  0  0  0  0
   17.7041    4.6744    2.1357 H   0  0  0  0  0  0  0  0  0  0  0  0
   19.1654    2.2298    3.1007 H   0  0  0  0  0  0  0  0  0  0  0  0
   20.0933    3.1640    4.2571 H   0  0  0  0  0  0  0  0  0  0  0  0
   19.0931    5.8129    3.8361 H   0  0  0  0  0  0  0  0  0  0  0  0
   18.8676    5.2044    5.4585 H   0  0  0  0  0  0  0  0  0  0  0  0
   17.5111    5.8636    4.5761 H   0  0  0  0  0  0  0  0  0  0  0  0
   20.7808    3.4984    2.0544 H   0  0  0  0  0  0  0  0  0  0  0  0
  1  2  2  0  0  0  0
  2  3  1  0  0  0  0
  2  4  1  0  0  0  0
  3  5  1  0  0  0  0
  3  6  1  0  0  0  0
  3  7  1  0  0  0  0
  4  8  1  0  0  0  0
  4 35  1  0  0  0  0
  4 36  1  0  0  0  0
  5  9  1  0  0  0  0
  5 10  1  0  0  0  0
  5 37  1  0  0  0  0
  6 38  1  0  0  0  0
  6 39  1  0  0  0  0
  6 40  1  0  0  0  0
  7 41  1  0  0  0  0
  7 42  1  0  0  0  0
  7 43  1  0  0  0  0
  8  9  1  0  0  0  0
  8 44  1  0  0  0  0
  8 45  1  0  0  0  0
  9 11  1  0  0  0  0
  9 12  1  0  0  0  0
 10 13  1  0  0  0  0
 10 46  1  0  0  0  0
 10 47  1  0  0  0  0
 11 14  1  0  0  0  0
 11 15  2  0  0  0  0
 12 48  1  0  0  0  0
 12 49  1  0  0  0  0
 12 50  1  0  0  0  0
 13 14  2  0  0  0  0
 13 51  1  0  0  0  0
 14 16  1  0  0  0  0
 15 17  1  0  0  0  0
 15 52  1  0  0  0  0
 16 18  1  0  0  0  0
 16 19  1  0  0  0  0
 16 20  1  0  0  0  0
 17 18  1  0  0  0  0
 17 53  1  0  0  0  0
 17 54  1  0  0  0  0
 18 21  1  0  0  0  0
 18 22  1  0  0  0  0
 19 23  1  0  0  0  0
 19 55  1  0  0  0  0
 19 56  1  0  0  0  0
 20 57  1  0  0  0  0
 20 58  1  0  0  0  0
 20 59  1  0  0  0  0
 21 24  1  0  0  0  0
 21 23  1  0  0  0  0
 21 60  1  0  0  0  0
 22 61  1  0  0  0  0
 22 62  1  0  0  0  0
 22 63  1  0  0  0  0
 23 64  1  0  0  0  0
 23 65  1  0  0  0  0
 24 25  1  0  0  0  0
 24 26  1  0  0  0  0
 24 66  1  0  0  0  0
 25 27  1  0  0  0  0
 25 67  1  0  0  0  0
 25 68  1  0  0  0  0
 26 69  1  0  0  0  0
 26 70  1  0  0  0  0
 26 71  1  0  0  0  0
 27 28  1  0  0  0  0
 27 72  1  0  0  0  0
 27 73  1  0  0  0  0
 28 29  1  0  0  0  0
 28 30  1  0  0  0  0
 28 74  1  0  0  0  0
 29 75  1  0  0  0  0
 30 31  1  0  0  0  0
 30 32  1  0  0  0  0
 30 33  1  0  0  0  0
 31 76  1  0  0  0  0
 32 34  1  0  0  0  0
 32 77  1  0  0  0  0
 32 78  1  0  0  0  0
 33 79  1  0  0  0  0
 33 80  1  0  0  0  0
 33 81  1  0  0  0  0
 34 82  1  0  0  0  0
M  END
>  <Code-name>
186

>  <Compound>
Ganodermanontriol

>  <Specie>
ganoderma lucidum

>  <Reference>
MORADALI et al., 2009

>  <Organism>
Antitumoral Activity

>  <Smiles>
C[C@H](CC[C@@H]([C@@](C)(CO)O)O)[C@@H](CC1)[C@]2(C)[C@]1(C)C1=CC[C@@H](C(C)(C)C(CC3)=O)[C@@]3(C)C1=CC2

>  <MMFF94 Energy>
147.47

>  <Total Molweight>
472.707

>  <Molweight>
472.707

>  <Monoisotopic Mass>
472.355260

>  <cLogP>
5.346

>  <cLogS>
-5.184

>  <H-Acceptors>
4

>  <H-Donors>
3

>  <Total Surface Area>
357.43

>  <Relative PSA>
0.14643

>  <Polar Surface Area>
77.76

>  <Druglikeness>
-5.6474

>  <Mutagenic>
none

>  <Tumorigenic>
none

>  <Reproductive Effective>
none

>  <Irritant>
none

>  <Nasty Functions>


>  <Shape Index>
0.5

>  <Molecular Flexibility>
0.34892

>  <Molecular Complexity>
0.98824

>  <Fragments>
1

>  <Non-H Atoms>
34

>  <Non-C/H Atoms>
4

>  <Metal-Atoms>
0

>  <Electronegative Atoms>
4

>  <Stereo Centers>
8

>  <Rotatable Bonds>
6

>  <Rings Closures>
4

>  <Small Rings>
4

>  <Aromatic Rings>
0

>  <Aromatic Atoms>
0

>  <sp3-Atoms>
28

>  <Symmetric atoms>
1

>  <Amides>
0

>  <Amines>
0

>  <Alkyl-Amines>
0

>  <Aromatic Amines>
0

>  <Aromatic Nitrogens>
0

>  <Basic Nitrogens>
0

>  <Acidic Oxygens>
0

>  <Stereo Configuration>
this enantiomer

> <Gold.Version>
5.8.1

> <Gold.Id.Protein>
ID_2|Prot_COX2_5IKQ_Alig|mol2

> <Gold.Goldscore.Fitness>
-49.8701

> <Gold.Goldscore.Internal.Vdw>
-35.2226

> <Gold.Goldscore.Internal.Torsion>
-6.4915

> <Gold.Goldscore.External.Vdw>
-26.9429

> <Gold.Goldscore.Internal.HBond>
0.0000

> <Gold.Goldscore.External.HBond>
0.0000

> <Gold.Goldscore.Internal.Correction>
-28.8905

> <Gold.Goldscore.Internal.Vdw.Weighted>
-35.2226

> <Gold.Goldscore.Internal.Torsion.Weighted>
-6.4915

> <Gold.Goldscore.External.Vdw.Weighted>
-37.0465

> <Gold.Goldscore.Internal.HBond.Weighted>
0.0000

> <Gold.Goldscore.External.HBond.Weighted>
0.0000

> <Gold.Goldscore.Internal.Correction.Weighted>
-28.8905

> <Gold.Protein.RotatedTorsions>
[ 5077 5068 5067 5065 ] final  154.72 input  179.94 | X-H torsion
[ 5157 5152 5151 5148 ] final -136.05 input -179.92 | X-H torsion
[ 5185 5176 5175 5173 ] final  -67.99 input -179.99 | X-H torsion
[ 5712 5703 5702 5700 ] final  143.87 input  180.00 | X-H torsion
[ 8036 8031 8030 8027 ] final -120.58 input -179.94 | X-H torsion
[ 2749 2745 2743 2740 ] final -129.18 input  -60.05 | X-H torsion
[ 1366 1361 1360 1357 ] final   18.82 input  -60.09 | X-H torsion
[ 2556 2551 2550 2547 ] final  -25.79 input   59.97 | X-H torsion

> <Gold.Protein.ActiveResidues>
 PRO86   VAL89   HIS90   LEU93   THR94   ILE112  MET113  TYR115  VAL116  LEU117 
 THR118  SER119  ARG120  SER121  LEU123  ILE124  GLN192  SER194  PHE198  PHE201 
 ALA202  GLN203  PHE205  THR206  PHE209  PHE210  VAL228  ILE341  ILE343  VAL344 
 ILE345  GLU346  ASP347  TYR348  VAL349  GLN350  HIS351  LEU352  SER353  GLY354 
 TYR355  PHE357  LEU359  LYS360  GLU380  PHE381  ASN382  THR383  LEU384  TYR385 
 HIS386  TRP387  LEU390  VAL434  LEU507  ARG513  ALA516  ILE517  PHE518  GLY519 
 GLU520  THR521  MET522  VAL523  GLU524  VAL525  GLY526  ALA527  PRO528  PHE529 
 SER530  LEU531  LYS532  GLY533  LEU534  MET535  COH609 

> <Gold.Protein.RotatedAtoms>
   17.6729    7.4868    2.1642 H   0  0  0  0  0  0  0  0  0  0  0  0  # atno 1366 bound_to 1361
    4.9473   -9.4303    8.1531 H   0  0  0  0  0  0  0  0  0  0  0  0  # atno 2556 bound_to 2551
   -2.8799   -0.5136    0.8876 H   0  0  0  0  0  0  0  0  0  0  0  0  # atno 2749 bound_to 2745
    1.6457   -1.3854    3.6934 H   0  0  0  0  0  0  0  0  0  0  0  0  # atno 5077 bound_to 5068
   11.8095   -1.4060    9.2674 H   0  0  0  0  0  0  0  0  0  0  0  0  # atno 5157 bound_to 5152
   16.6012   -0.4498    4.9564 H   0  0  0  0  0  0  0  0  0  0  0  0  # atno 5185 bound_to 5176
    3.0108   -0.0917    2.3599 H   0  0  0  0  0  0  0  0  0  0  0  0  # atno 5712 bound_to 5703
    6.2468    4.3404    3.7095 H   0  0  0  0  0  0  0  0  0  0  0  0  # atno 8036 bound_to 8031
    0.5023   -2.2069    4.2217 LP  0  0  0  0  0  0  0  0  0  0  0  0  # atno 8267 bound_to 5068
    2.0115   -2.8028    4.0377 LP  0  0  0  0  0  0  0  0  0  0  0  0  # atno 8268 bound_to 5068
   13.0891   -2.1948    9.1936 LP  0  0  0  0  0  0  0  0  0  0  0  0  # atno 8279 bound_to 5152
   11.6201   -2.8985    9.3099 LP  0  0  0  0  0  0  0  0  0  0  0  0  # atno 8280 bound_to 5152
   15.4312    0.4911    5.0245 LP  0  0  0  0  0  0  0  0  0  0  0  0  # atno 8281 bound_to 5176
   15.2904   -1.0674    4.5576 LP  0  0  0  0  0  0  0  0  0  0  0  0  # atno 8282 bound_to 5176
    2.1362   -1.2255    2.8162 LP  0  0  0  0  0  0  0  0  0  0  0  0  # atno 8283 bound_to 5703
    1.6217    0.3232    2.7562 LP  0  0  0  0  0  0  0  0  0  0  0  0  # atno 8284 bound_to 5703
    4.9249    3.7516    3.3026 LP  0  0  0  0  0  0  0  0  0  0  0  0  # atno 8309 bound_to 8031
    5.1921    5.3606    3.3831 LP  0  0  0  0  0  0  0  0  0  0  0  0  # atno 8310 bound_to 8031
   -3.5648   -0.0043   -0.3513 LP  0  0  0  0  0  0  0  0  0  0  0  0  # atno 8323 bound_to 2745
   -4.1970    0.1665    1.1446 LP  0  0  0  0  0  0  0  0  0  0  0  0  # atno 8324 bound_to 2745
   18.2956    7.5048    3.5338 LP  0  0  0  0  0  0  0  0  0  0  0  0  # atno 8335 bound_to 1361
   18.7611    6.4667    2.3623 LP  0  0  0  0  0  0  0  0  0  0  0  0  # atno 8336 bound_to 1361
    4.4623   -8.7398    6.9072 LP  0  0  0  0  0  0  0  0  0  0  0  0  # atno 8342 bound_to 2551
    5.1496  -10.2209    6.8890 LP  0  0  0  0  0  0  0  0  0  0  0  0  # atno 8343 bound_to 2551

