
018|LMW3_p|sdf|18|dock2
  -GOLD-   6 722 3533D 1   1.00000     0.00000

 93 97  0  0  0  0  0  0  0  0  3 V2000
    7.9713   -2.9064   -0.3156 O   0  0  0  0  0  0  0  0  0  0  0  0
    7.7686   -1.7022   -0.2100 C   0  0  0  0  0  0  0  0  0  0  0  0
    7.8455   -0.9946    0.9488 O   0  0  0  0  0  0  0  0  0  0  0  0
    7.4011   -0.7728   -1.3807 C   0  0  1  0  0  0  0  0  0  0  0  0
    7.5289   -1.7016    2.1632 C   0  0  1  0  0  0  0  0  0  0  0  0
    6.7120   -1.5606   -2.4348 N   0  3  0  0  0  0  0  0  0  0  0  0
    6.4665    0.3578   -0.9368 C   0  0  0  0  0  0  0  0  0  0  0  0
    8.7745   -2.3915    2.7389 C   0  0  0  0  0  0  0  0  0  0  0  0
    6.9559   -0.6779    3.1453 C   0  0  0  0  0  0  0  0  0  0  0  0
    5.2151   -0.1463   -0.2151 C   0  0  0  0  0  0  0  0  0  0  0  0
    9.8440   -1.4078    3.2497 C   0  0  1  0  0  0  0  0  0  0  0  0
    8.0111    0.3320    3.6045 C   0  0  0  0  0  0  0  0  0  0  0  0
    4.6923    0.8749    0.7580 C   0  0  0  0  0  0  0  0  0  0  0  0
   10.3433   -0.6745    2.1085 O   0  0  0  0  0  0  0  0  0  0  0  0
    9.2729   -0.3344    4.2275 C   0  0  2  0  0  0  0  0  0  0  0  0
   11.0231   -2.1858    3.8674 C   0  0  0  0  0  0  0  0  0  0  0  0
    4.6299    2.0820    0.6057 O   0  0  0  0  0  0  0  0  0  0  0  0
    4.2330    0.3028    1.8883 O   0  5  0  0  0  0  0  0  0  0  0  0
   11.6463   -0.0630    2.4263 O   0  0  0  0  0  0  0  0  0  0  0  0
   10.3988    0.7631    4.3717 C   0  0  2  0  0  0  0  0  0  0  0  0
    8.8580   -0.9683    5.5785 C   0  0  0  0  0  0  0  0  0  0  0  0
   12.0379   -1.1926    4.4423 C   0  0  0  0  0  0  0  0  0  0  0  0
   11.7487    0.1963    3.8492 C   0  0  1  0  0  0  0  0  0  0  0  0
   10.5195    1.3912    5.7673 C   0  0  0  0  0  0  0  0  0  0  0  0
   12.9276    1.1818    4.0429 C   0  0  2  0  0  0  0  0  0  0  0  0
   11.6307    2.4389    5.8289 C   0  0  0  0  0  0  0  0  0  0  0  0
   13.0269    1.8931    5.4115 C   0  0  2  0  0  0  0  0  0  0  0  0
   12.9143    2.3419    3.0240 C   0  0  0  0  0  0  0  0  0  0  0  0
   13.9830    3.1035    5.1145 C   0  0  2  0  0  0  0  0  0  0  0  0
   13.5617    0.9895    6.5331 C   0  0  0  0  0  0  0  0  0  0  0  0
   13.5889    3.5400    3.6906 C   0  0  0  0  0  0  0  0  0  0  0  0
   15.5225    2.8864    5.2894 C   0  0  1  0  0  0  0  0  0  0  0  0
   16.4053    3.8327    4.5083 C   0  0  0  0  0  0  0  0  0  0  0  0
   15.9196    2.9661    6.7727 C   0  0  0  0  0  0  0  0  0  0  0  0
   17.5153    3.4579    3.8514 C   0  0  0  0  0  0  0  0  0  0  0  0
   18.3938    4.4115    3.0693 C   0  0  1  0  0  0  0  0  0  0  0  0
   19.5996    3.6707    2.4256 C   0  0  0  0  0  0  0  0  0  0  0  0
   17.5153    5.1215    2.0328 C   0  0  0  0  0  0  0  0  0  0  0  0
   20.5675    4.6493    1.7442 C   0  0  0  0  0  0  0  0  0  0  0  0
   19.1542    2.6248    1.3969 C   0  0  0  0  0  0  0  0  0  0  0  0
    8.3080   -0.3421   -1.7507 H   0  0  0  0  0  0  0  0  0  0  0  0
    6.8144   -2.4753    1.9741 H   0  0  0  0  0  0  0  0  0  0  0  0
    5.9048   -2.0359   -2.0311 H   0  0  0  0  0  0  0  0  0  0  0  0
    7.3565   -2.2517   -2.8188 H   0  0  0  0  0  0  0  0  0  0  0  0
    6.4015   -0.9353   -3.1785 H   0  0  0  0  0  0  0  0  0  0  0  0
    6.1620    0.9077   -1.8027 H   0  0  0  0  0  0  0  0  0  0  0  0
    7.0096    0.9676   -0.2453 H   0  0  0  0  0  0  0  0  0  0  0  0
    9.2106   -2.9969    1.9720 H   0  0  0  0  0  0  0  0  0  0  0  0
    8.4525   -2.9693    3.5800 H   0  0  0  0  0  0  0  0  0  0  0  0
    6.5777   -1.1957    4.0019 H   0  0  0  0  0  0  0  0  0  0  0  0
    6.1794   -0.1388    2.6440 H   0  0  0  0  0  0  0  0  0  0  0  0
    5.4577   -1.0421    0.3174 H   0  0  0  0  0  0  0  0  0  0  0  0
    4.4570   -0.3323   -0.9469 H   0  0  0  0  0  0  0  0  0  0  0  0
    7.5697    0.9746    4.3375 H   0  0  0  0  0  0  0  0  0  0  0  0
    8.3328    0.8700    2.7373 H   0  0  0  0  0  0  0  0  0  0  0  0
   11.4934   -2.7810    3.1128 H   0  0  0  0  0  0  0  0  0  0  0  0
   10.6630   -2.8231    4.6479 H   0  0  0  0  0  0  0  0  0  0  0  0
   10.1019    1.5893    3.7600 H   0  0  0  0  0  0  0  0  0  0  0  0
    8.2680   -0.2696    6.1340 H   0  0  0  0  0  0  0  0  0  0  0  0
    9.7343   -1.2198    6.1386 H   0  0  0  0  0  0  0  0  0  0  0  0
    8.2850   -1.8534    5.3961 H   0  0  0  0  0  0  0  0  0  0  0  0
   13.0296   -1.4976    4.1810 H   0  0  0  0  0  0  0  0  0  0  0  0
   11.9568   -1.1607    5.5088 H   0  0  0  0  0  0  0  0  0  0  0  0
   10.7330    0.6189    6.4765 H   0  0  0  0  0  0  0  0  0  0  0  0
    9.5934    1.8776    5.9923 H   0  0  0  0  0  0  0  0  0  0  0  0
   13.7520    0.5098    3.9256 H   0  0  0  0  0  0  0  0  0  0  0  0
   11.6964    2.8033    6.8327 H   0  0  0  0  0  0  0  0  0  0  0  0
   11.3741    3.2090    5.1317 H   0  0  0  0  0  0  0  0  0  0  0  0
   11.9064    2.5880    2.7626 H   0  0  0  0  0  0  0  0  0  0  0  0
   13.4313    2.0657    2.1289 H   0  0  0  0  0  0  0  0  0  0  0  0
   13.8396    3.8548    5.8627 H   0  0  0  0  0  0  0  0  0  0  0  0
   14.5190    0.6022    6.2531 H   0  0  0  0  0  0  0  0  0  0  0  0
   12.8818    0.1788    6.6927 H   0  0  0  0  0  0  0  0  0  0  0  0
   13.6567    1.5581    7.4345 H   0  0  0  0  0  0  0  0  0  0  0  0
   12.9101    4.3658    3.7345 H   0  0  0  0  0  0  0  0  0  0  0  0
   14.4494    3.8500    3.1354 H   0  0  0  0  0  0  0  0  0  0  0  0
   15.6921    1.9094    4.8873 H   0  0  0  0  0  0  0  0  0  0  0  0
   16.1384    4.8291    4.4779 H   0  0  0  0  0  0  0  0  0  0  0  0
   16.1030    1.9804    7.1464 H   0  0  0  0  0  0  0  0  0  0  0  0
   15.1257    3.4170    7.3307 H   0  0  0  0  0  0  0  0  0  0  0  0
   16.8063    3.5565    6.8734 H   0  0  0  0  0  0  0  0  0  0  0  0
   17.7851    2.4622    3.8815 H   0  0  0  0  0  0  0  0  0  0  0  0
   18.8232    5.1428    3.7218 H   0  0  0  0  0  0  0  0  0  0  0  0
   20.1006    3.1750    3.2306 H   0  0  0  0  0  0  0  0  0  0  0  0
   17.0574    4.3944    1.3953 H   0  0  0  0  0  0  0  0  0  0  0  0
   18.1192    5.7811    1.4454 H   0  0  0  0  0  0  0  0  0  0  0  0
   16.7563    5.6847    2.5344 H   0  0  0  0  0  0  0  0  0  0  0  0
   20.7488    5.4811    2.3925 H   0  0  0  0  0  0  0  0  0  0  0  0
   20.1368    4.9976    0.8288 H   0  0  0  0  0  0  0  0  0  0  0  0
   21.4913    4.1509    1.5368 H   0  0  0  0  0  0  0  0  0  0  0  0
   18.4039    1.9964    1.8292 H   0  0  0  0  0  0  0  0  0  0  0  0
   19.9946    2.0293    1.1071 H   0  0  0  0  0  0  0  0  0  0  0  0
   18.7534    3.1188    0.5366 H   0  0  0  0  0  0  0  0  0  0  0  0
  1  2  2  0  0  0  0
  2  3  1  0  0  0  0
  2  4  1  0  0  0  0
  3  5  1  0  0  0  0
  4  6  1  0  0  0  0
  4  7  1  0  0  0  0
  4 41  1  0  0  0  0
  5  8  1  0  0  0  0
  5  9  1  0  0  0  0
  5 42  1  0  0  0  0
  6 43  1  0  0  0  0
  6 44  1  0  0  0  0
  6 45  1  0  0  0  0
  7 10  1  0  0  0  0
  7 46  1  0  0  0  0
  7 47  1  0  0  0  0
  8 11  1  0  0  0  0
  8 48  1  0  0  0  0
  8 49  1  0  0  0  0
  9 12  1  0  0  0  0
  9 50  1  0  0  0  0
  9 51  1  0  0  0  0
 10 13  1  0  0  0  0
 10 52  1  0  0  0  0
 10 53  1  0  0  0  0
 11 14  1  0  0  0  0
 11 15  1  0  0  0  0
 11 16  1  0  0  0  0
 12 15  1  0  0  0  0
 12 54  1  0  0  0  0
 12 55  1  0  0  0  0
 13 17  2  0  0  0  0
 13 18  1  0  0  0  0
 14 19  1  0  0  0  0
 15 20  1  0  0  0  0
 15 21  1  0  0  0  0
 16 22  1  0  0  0  0
 16 56  1  0  0  0  0
 16 57  1  0  0  0  0
 20 24  1  0  0  0  0
 20 23  1  0  0  0  0
 20 58  1  0  0  0  0
 21 59  1  0  0  0  0
 21 60  1  0  0  0  0
 21 61  1  0  0  0  0
 22 23  1  0  0  0  0
 22 62  1  0  0  0  0
 22 63  1  0  0  0  0
 23 19  1  0  0  0  0
 23 25  1  0  0  0  0
 24 26  1  0  0  0  0
 24 64  1  0  0  0  0
 24 65  1  0  0  0  0
 25 27  1  0  0  0  0
 25 28  1  0  0  0  0
 25 66  1  0  0  0  0
 26 27  1  0  0  0  0
 26 67  1  0  0  0  0
 26 68  1  0  0  0  0
 27 29  1  0  0  0  0
 27 30  1  0  0  0  0
 28 31  1  0  0  0  0
 28 69  1  0  0  0  0
 28 70  1  0  0  0  0
 29 32  1  0  0  0  0
 29 31  1  0  0  0  0
 29 71  1  0  0  0  0
 30 72  1  0  0  0  0
 30 73  1  0  0  0  0
 30 74  1  0  0  0  0
 31 75  1  0  0  0  0
 31 76  1  0  0  0  0
 32 33  1  0  0  0  0
 32 34  1  0  0  0  0
 32 77  1  0  0  0  0
 33 35  2  0  0  0  0
 33 78  1  0  0  0  0
 34 79  1  0  0  0  0
 34 80  1  0  0  0  0
 34 81  1  0  0  0  0
 35 36  1  0  0  0  0
 35 82  1  0  0  0  0
 36 37  1  0  0  0  0
 36 38  1  0  0  0  0
 36 83  1  0  0  0  0
 37 39  1  0  0  0  0
 37 40  1  0  0  0  0
 37 84  1  0  0  0  0
 38 85  1  0  0  0  0
 38 86  1  0  0  0  0
 38 87  1  0  0  0  0
 39 88  1  0  0  0  0
 39 89  1  0  0  0  0
 39 90  1  0  0  0  0
 40 91  1  0  0  0  0
 40 92  1  0  0  0  0
 40 93  1  0  0  0  0
M  CHG  1   6   1
M  CHG  1  18  -1
M  END
>  <Code-name>
018

>  <Compound>
5α,8α-epidioxy-24(R)-methylcholesta-6,22- dien-3β-D-glucopyranoside

>  <Specie>
Cordyceps sinensis

>  <Reference>
BOK et al., 2000

>  <Organism>
Antitumoral Activity

>  <Smiles>
CC(C)[C@@H](C)/C=C/[C@@H](C)[C@@H](CC1)[C@]2(C)[C@H]1[C@]1(CC3)OO[C@]3(C[C@@H](CC3)OC([C@H](CCC(O)=O)N)=O)[C@@]3(C)[C@H]1CC2

>  <MMFF94 Energy>
136.84

>  <Total Molweight>
559.785

>  <Molweight>
559.785

>  <Monoisotopic Mass>
559.387289

>  <cLogP>
4.0864

>  <cLogS>
-6.589

>  <H-Acceptors>
7

>  <H-Donors>
2

>  <Total Surface Area>
419.43

>  <Relative PSA>
0.20134

>  <Polar Surface Area>
108.08

>  <Druglikeness>
-20.853

>  <Mutagenic>
none

>  <Tumorigenic>
high

>  <Reproductive Effective>
none

>  <Irritant>
none

>  <Nasty Functions>
peroxo

>  <Shape Index>
0.55

>  <Molecular Flexibility>
0.3629

>  <Molecular Complexity>
1.0185

>  <Fragments>
1

>  <Non-H Atoms>
40

>  <Non-C/H Atoms>
7

>  <Metal-Atoms>
0

>  <Electronegative Atoms>
7

>  <Stereo Centers>
11

>  <Rotatable Bonds>
10

>  <Rings Closures>
5

>  <Small Rings>
6

>  <Aromatic Rings>
0

>  <Aromatic Atoms>
0

>  <sp3-Atoms>
34

>  <Symmetric atoms>
1

>  <Amides>
0

>  <Amines>
1

>  <Alkyl-Amines>
1

>  <Aromatic Amines>
0

>  <Aromatic Nitrogens>
0

>  <Basic Nitrogens>
1

>  <Acidic Oxygens>
1

>  <Stereo Configuration>
this enantiomer

> <Gold.Version>
5.8.1

> <Gold.Id.Protein>
ID_2|Prot_COX2_5IKQ_Alig|mol2

> <Gold.Goldscore.Fitness>
-140.7353

> <Gold.Goldscore.Internal.Vdw>
-31.9998

> <Gold.Goldscore.Internal.Torsion>
-13.7907

> <Gold.Goldscore.External.Vdw>
-89.3638

> <Gold.Goldscore.Internal.HBond>
0.0000

> <Gold.Goldscore.External.HBond>
0.6458

> <Gold.Goldscore.Internal.Correction>
-27.2847

> <Gold.Goldscore.Hbonds>
donor molecule, donor type, donor heavy atom, donor atom, acceptor molecule, acceptor atom, score
      P1  H  5068  5077       L1    18  0.04
      P1  H  5703  5712       L1    18  0.07

> <Gold.Goldscore.Internal.Vdw.Weighted>
-31.9998

> <Gold.Goldscore.Internal.Torsion.Weighted>
-13.7907

> <Gold.Goldscore.External.Vdw.Weighted>
-122.8752

> <Gold.Goldscore.Internal.HBond.Weighted>
0.0000

> <Gold.Goldscore.External.HBond.Weighted>
0.6458

> <Gold.Goldscore.Internal.Correction.Weighted>
-27.2847

> <Gold.Protein.RotatedTorsions>
[ 5077 5068 5067 5065 ] final -179.52 input  179.94 | X-H torsion
[ 5157 5152 5151 5148 ] final -177.62 input -179.92 | X-H torsion
[ 5185 5176 5175 5173 ] final  -18.47 input -179.99 | X-H torsion
[ 5712 5703 5702 5700 ] final  126.14 input  180.00 | X-H torsion
[ 8036 8031 8030 8027 ] final  149.29 input -179.94 | X-H torsion
[ 2749 2745 2743 2740 ] final    5.05 input  -60.05 | X-H torsion
[ 1366 1361 1360 1357 ] final -115.83 input  -60.09 | X-H torsion
[ 2556 2551 2550 2547 ] final    3.86 input   59.97 | X-H torsion

> <Gold.Protein.ActiveResidues>
 PRO86   VAL89   HIS90   LEU93   THR94   ILE112  MET113  TYR115  VAL116  LEU117 
 THR118  SER119  ARG120  SER121  LEU123  ILE124  GLN192  SER194  PHE198  PHE201 
 ALA202  GLN203  PHE205  THR206  PHE209  PHE210  VAL228  ILE341  ILE343  VAL344 
 ILE345  GLU346  ASP347  TYR348  VAL349  GLN350  HIS351  LEU352  SER353  GLY354 
 TYR355  PHE357  LEU359  LYS360  GLU380  PHE381  ASN382  THR383  LEU384  TYR385 
 HIS386  TRP387  LEU390  VAL434  LEU507  ARG513  ALA516  ILE517  PHE518  GLY519 
 GLU520  THR521  MET522  VAL523  GLU524  VAL525  GLY526  ALA527  PRO528  PHE529 
 SER530  LEU531  LYS532  GLY533  LEU534  MET535  COH609 

> <Gold.Protein.RotatedAtoms>
   18.4554    7.3428    3.3865 H   0  0  0  0  0  0  0  0  0  0  0  0  # atno 1366 bound_to 1361
    5.0970   -9.7905    8.0465 H   0  0  0  0  0  0  0  0  0  0  0  0  # atno 2556 bound_to 2551
   -4.1389    0.2165    0.8900 H   0  0  0  0  0  0  0  0  0  0  0  0  # atno 2749 bound_to 2745
    1.9392   -1.5792    3.6845 H   0  0  0  0  0  0  0  0  0  0  0  0  # atno 5077 bound_to 5068
   12.3668   -1.3596    9.2207 H   0  0  0  0  0  0  0  0  0  0  0  0  # atno 5157 bound_to 5152
   16.2763   -0.9890    4.7579 H   0  0  0  0  0  0  0  0  0  0  0  0  # atno 5185 bound_to 5176
    3.0525   -0.3302    2.3802 H   0  0  0  0  0  0  0  0  0  0  0  0  # atno 5712 bound_to 5703
    5.3824    3.6984    3.4150 H   0  0  0  0  0  0  0  0  0  0  0  0  # atno 8036 bound_to 8031
    0.5077   -1.8097    4.0833 LP  0  0  0  0  0  0  0  0  0  0  0  0  # atno 8267 bound_to 5068
    1.6544   -2.9678    4.1867 LP  0  0  0  0  0  0  0  0  0  0  0  0  # atno 8268 bound_to 5068
   12.8030   -2.8000    9.2106 LP  0  0  0  0  0  0  0  0  0  0  0  0  # atno 8279 bound_to 5152
   11.2397   -2.3487    9.3488 LP  0  0  0  0  0  0  0  0  0  0  0  0  # atno 8280 bound_to 5152
   16.2153    0.4676    5.1227 LP  0  0  0  0  0  0  0  0  0  0  0  0  # atno 8281 bound_to 5176
   14.8964   -0.3965    4.6978 LP  0  0  0  0  0  0  0  0  0  0  0  0  # atno 8282 bound_to 5176
    1.8733   -1.1176    2.8784 LP  0  0  0  0  0  0  0  0  0  0  0  0  # atno 8283 bound_to 5703
    1.8346    0.5015    2.6698 LP  0  0  0  0  0  0  0  0  0  0  0  0  # atno 8284 bound_to 5703
    4.8174    5.0823    3.2554 LP  0  0  0  0  0  0  0  0  0  0  0  0  # atno 8309 bound_to 8031
    6.3366    4.8001    3.7836 LP  0  0  0  0  0  0  0  0  0  0  0  0  # atno 8310 bound_to 8031
   -2.8937   -0.5892    1.1422 LP  0  0  0  0  0  0  0  0  0  0  0  0  # atno 8323 bound_to 2745
   -3.3602   -0.1229   -0.3517 LP  0  0  0  0  0  0  0  0  0  0  0  0  # atno 8324 bound_to 2745
   18.6309    6.4907    2.1589 LP  0  0  0  0  0  0  0  0  0  0  0  0  # atno 8335 bound_to 1361
   17.4898    7.6531    2.2750 LP  0  0  0  0  0  0  0  0  0  0  0  0  # atno 8336 bound_to 1361
    4.4757   -8.5993    7.3690 LP  0  0  0  0  0  0  0  0  0  0  0  0  # atno 8342 bound_to 2551
    4.9571   -9.9304    6.5548 LP  0  0  0  0  0  0  0  0  0  0  0  0  # atno 8343 bound_to 2551

