
191|LMW3_p|sdf|191|dock2
  -GOLD-   61022 2423D 1   1.00000     0.00000

 84 87  0  0  0  0  0  0  0  0  2 V2000
    9.6662    7.2702    9.7182 O   0  0  0  0  0  0  0  0  0  0  0  0
    9.5924    6.9983    8.5322 C   0  0  0  0  0  0  0  0  0  0  0  0
    9.2838    7.9461    7.6310 O   0  5  0  0  0  0  0  0  0  0  0  0
    9.8213    5.6513    7.9437 C   0  0  0  0  0  0  0  0  0  0  0  0
   11.0363    5.2997    7.4747 C   0  0  0  0  0  0  0  0  0  0  0  0
    8.6049    4.7717    7.9554 C   0  0  0  0  0  0  0  0  0  0  0  0
   11.4176    3.9964    6.8260 C   0  0  0  0  0  0  0  0  0  0  0  0
   11.4614    4.1338    5.2993 C   0  0  0  0  0  0  0  0  0  0  0  0
   12.1786    2.9561    4.5824 C   0  0  2  0  0  0  0  0  0  0  0  0
   11.3574    1.6409    4.7549 C   0  0  2  0  0  0  0  0  0  0  0  0
   13.6099    2.8160    5.1118 C   0  0  0  0  0  0  0  0  0  0  0  0
   11.9892    0.2674    4.3738 C   0  0  2  0  0  0  0  0  0  0  0  0
   10.0468    1.6554    3.9111 C   0  0  0  0  0  0  0  0  0  0  0  0
   10.7164   -0.6601    4.2981 C   0  0  1  0  0  0  0  0  0  0  0  0
   12.9565   -0.3545    5.3981 C   0  0  0  0  0  0  0  0  0  0  0  0
   12.7317    0.3994    3.0038 C   0  0  0  0  0  0  0  0  0  0  0  0
    9.7844    0.2141    3.4168 C   0  0  1  0  0  0  0  0  0  0  0  0
   11.1159   -2.0555    3.8023 C   0  0  0  0  0  0  0  0  0  0  0  0
   10.0070   -0.9058    5.6723 C   0  0  0  0  0  0  0  0  0  0  0  0
   13.1728   -1.8253    5.1229 C   0  0  0  0  0  0  0  0  0  0  0  0
    8.3979   -0.1296    3.5706 O   0  0  0  0  0  0  0  0  0  0  0  0
   12.3785   -2.6054    4.3513 C   0  0  0  0  0  0  0  0  0  0  0  0
   10.3456   -2.7724    2.9644 C   0  0  0  0  0  0  0  0  0  0  0  0
    7.5220    0.6065    2.8346 C   0  0  0  0  0  0  0  0  0  0  0  0
   12.7778   -4.0553    3.9349 C   0  0  2  0  0  0  0  0  0  0  0  0
   10.5881   -4.2107    2.6228 C   0  0  0  0  0  0  0  0  0  0  0  0
    7.8219    1.4375    1.9896 O   0  0  0  0  0  0  0  0  0  0  0  0
    6.1167    0.2509    3.2112 C   0  0  0  0  0  0  0  0  0  0  0  0
   11.4705   -4.8929    3.6871 C   0  0  1  0  0  0  0  0  0  0  0  0
   13.6213   -4.7665    5.0297 C   0  0  0  0  0  0  0  0  0  0  0  0
   13.6617   -3.8739    2.6739 C   0  0  0  0  0  0  0  0  0  0  0  0
   11.6383   -6.4455    3.4803 C   0  0  0  0  0  0  0  0  0  0  0  0
   13.8502   -6.2575    4.7715 C   0  0  0  0  0  0  0  0  0  0  0  0
   12.5405   -7.0237    4.6083 C   0  0  1  0  0  0  0  0  0  0  0  0
   12.2169   -6.8429    2.1060 C   0  0  0  0  0  0  0  0  0  0  0  0
   10.2430   -7.1254    3.5597 C   0  0  0  0  0  0  0  0  0  0  0  0
   11.8755   -6.9775    5.8735 O   0  0  0  0  0  0  0  0  0  0  0  0
   11.7867    6.0015    7.5715 H   0  0  0  0  0  0  0  0  0  0  0  0
    7.7407    5.3610    8.1805 H   0  0  0  0  0  0  0  0  0  0  0  0
    8.7217    4.0113    8.6991 H   0  0  0  0  0  0  0  0  0  0  0  0
    8.4853    4.3156    6.9949 H   0  0  0  0  0  0  0  0  0  0  0  0
   10.6971    3.2506    7.0896 H   0  0  0  0  0  0  0  0  0  0  0  0
   12.3910    3.7163    7.1708 H   0  0  0  0  0  0  0  0  0  0  0  0
   11.9765    5.0398    5.0570 H   0  0  0  0  0  0  0  0  0  0  0  0
   10.4473    4.1345    4.9579 H   0  0  0  0  0  0  0  0  0  0  0  0
   12.2402    3.1581    3.5335 H   0  0  0  0  0  0  0  0  0  0  0  0
   11.2497    1.6749    5.8189 H   0  0  0  0  0  0  0  0  0  0  0  0
   14.0296    3.7879    5.2668 H   0  0  0  0  0  0  0  0  0  0  0  0
   14.2028    2.2808    4.3997 H   0  0  0  0  0  0  0  0  0  0  0  0
   13.5966    2.2813    6.0384 H   0  0  0  0  0  0  0  0  0  0  0  0
   10.1606    2.3119    3.0738 H   0  0  0  0  0  0  0  0  0  0  0  0
    9.2258    2.0018    4.5035 H   0  0  0  0  0  0  0  0  0  0  0  0
   12.5464   -0.2397    6.3796 H   0  0  0  0  0  0  0  0  0  0  0  0
   13.8988    0.1466    5.3218 H   0  0  0  0  0  0  0  0  0  0  0  0
   13.7790    0.5331    3.1771 H   0  0  0  0  0  0  0  0  0  0  0  0
   12.3479    1.2436    2.4700 H   0  0  0  0  0  0  0  0  0  0  0  0
   12.5761   -0.4882    2.4268 H   0  0  0  0  0  0  0  0  0  0  0  0
    9.9884    0.0782    2.3753 H   0  0  0  0  0  0  0  0  0  0  0  0
    8.9482   -0.8145    5.5485 H   0  0  0  0  0  0  0  0  0  0  0  0
   10.3467   -0.1820    6.3835 H   0  0  0  0  0  0  0  0  0  0  0  0
   10.2416   -1.8888    6.0240 H   0  0  0  0  0  0  0  0  0  0  0  0
   13.9941   -2.2723    5.5594 H   0  0  0  0  0  0  0  0  0  0  0  0
    9.5365   -2.3019    2.5294 H   0  0  0  0  0  0  0  0  0  0  0  0
   11.0790   -4.2665    1.6738 H   0  0  0  0  0  0  0  0  0  0  0  0
    9.6453   -4.7154    2.5888 H   0  0  0  0  0  0  0  0  0  0  0  0
    5.4799    1.0958    3.0512 H   0  0  0  0  0  0  0  0  0  0  0  0
    6.0842   -0.0298    4.2432 H   0  0  0  0  0  0  0  0  0  0  0  0
    5.7820   -0.5672    2.6083 H   0  0  0  0  0  0  0  0  0  0  0  0
   10.9544   -4.8782    4.6243 H   0  0  0  0  0  0  0  0  0  0  0  0
   13.1139   -4.6617    5.9659 H   0  0  0  0  0  0  0  0  0  0  0  0
   14.5849   -4.3014    5.0276 H   0  0  0  0  0  0  0  0  0  0  0  0
   13.1338   -3.2900    1.9493 H   0  0  0  0  0  0  0  0  0  0  0  0
   13.8929   -4.8330    2.2594 H   0  0  0  0  0  0  0  0  0  0  0  0
   14.5685   -3.3737    2.9429 H   0  0  0  0  0  0  0  0  0  0  0  0
   14.3905   -6.6710    5.5974 H   0  0  0  0  0  0  0  0  0  0  0  0
   14.4009   -6.3514    3.8589 H   0  0  0  0  0  0  0  0  0  0  0  0
   12.7480   -8.0306    4.3119 H   0  0  0  0  0  0  0  0  0  0  0  0
   11.9068   -6.1316    1.3693 H   0  0  0  0  0  0  0  0  0  0  0  0
   11.8597   -7.8147    1.8360 H   0  0  0  0  0  0  0  0  0  0  0  0
   13.2854   -6.8579    2.1596 H   0  0  0  0  0  0  0  0  0  0  0  0
   10.3668   -8.1845    3.6484 H   0  0  0  0  0  0  0  0  0  0  0  0
    9.6875   -6.9043    2.6723 H   0  0  0  0  0  0  0  0  0  0  0  0
    9.7140   -6.7555    4.4131 H   0  0  0  0  0  0  0  0  0  0  0  0
   12.4061   -7.4484    6.5350 H   0  0  0  0  0  0  0  0  0  0  0  0
  1  2  2  0  0  0  0
  2  3  1  0  0  0  0
  2  4  1  0  0  0  0
  4  5  2  0  0  0  0
  4  6  1  0  0  0  0
  5  7  1  0  0  0  0
  5 38  1  0  0  0  0
  6 39  1  0  0  0  0
  6 40  1  0  0  0  0
  6 41  1  0  0  0  0
  7  8  1  0  0  0  0
  7 42  1  0  0  0  0
  7 43  1  0  0  0  0
  8  9  1  0  0  0  0
  8 44  1  0  0  0  0
  8 45  1  0  0  0  0
  9 10  1  0  0  0  0
  9 11  1  0  0  0  0
  9 46  1  0  0  0  0
 10 12  1  0  0  0  0
 10 13  1  0  0  0  0
 10 47  1  0  0  0  0
 11 48  1  0  0  0  0
 11 49  1  0  0  0  0
 11 50  1  0  0  0  0
 12 14  1  0  0  0  0
 12 15  1  0  0  0  0
 12 16  1  0  0  0  0
 13 17  1  0  0  0  0
 13 51  1  0  0  0  0
 13 52  1  0  0  0  0
 14 18  1  0  0  0  0
 14 19  1  0  0  0  0
 14 17  1  0  0  0  0
 15 20  1  0  0  0  0
 15 53  1  0  0  0  0
 15 54  1  0  0  0  0
 16 55  1  0  0  0  0
 16 56  1  0  0  0  0
 16 57  1  0  0  0  0
 17 21  1  0  0  0  0
 17 58  1  0  0  0  0
 18 22  1  0  0  0  0
 18 23  2  0  0  0  0
 19 59  1  0  0  0  0
 19 60  1  0  0  0  0
 19 61  1  0  0  0  0
 20 22  2  0  0  0  0
 20 62  1  0  0  0  0
 21 24  1  0  0  0  0
 22 25  1  0  0  0  0
 23 26  1  0  0  0  0
 23 63  1  0  0  0  0
 24 27  2  0  0  0  0
 24 28  1  0  0  0  0
 25 29  1  0  0  0  0
 25 30  1  0  0  0  0
 25 31  1  0  0  0  0
 26 29  1  0  0  0  0
 26 64  1  0  0  0  0
 26 65  1  0  0  0  0
 28 66  1  0  0  0  0
 28 67  1  0  0  0  0
 28 68  1  0  0  0  0
 29 32  1  0  0  0  0
 29 69  1  0  0  0  0
 30 33  1  0  0  0  0
 30 70  1  0  0  0  0
 30 71  1  0  0  0  0
 31 72  1  0  0  0  0
 31 73  1  0  0  0  0
 31 74  1  0  0  0  0
 32 34  1  0  0  0  0
 32 35  1  0  0  0  0
 32 36  1  0  0  0  0
 33 34  1  0  0  0  0
 33 75  1  0  0  0  0
 33 76  1  0  0  0  0
 34 37  1  0  0  0  0
 34 77  1  0  0  0  0
 35 78  1  0  0  0  0
 35 79  1  0  0  0  0
 35 80  1  0  0  0  0
 36 81  1  0  0  0  0
 36 82  1  0  0  0  0
 36 83  1  0  0  0  0
 37 84  1  0  0  0  0
M  CHG  1   3  -1
M  END
>  <Code-name>
191

>  <Compound>
Ganoderic Acid X

>  <Specie>
ganoderma lucidum

>  <Reference>
Paterson 2008

>  <Organism>
Inhibitor dna-topoisomerase

>  <Smiles>
C[C@H](CC/C=C(\C)/C(O)=O)[C@@H](C[C@@H]1OC(C)=O)[C@]2(C)[C@]1(C)C1=CC[C@@H](C(C)(C)[C@@H](CC3)O)[C@@]3(C)C1=CC2

>  <MMFF94 Energy>
86.707

>  <Total Molweight>
512.728

>  <Molweight>
512.728

>  <Monoisotopic Mass>
512.350175

>  <cLogP>
6.5024

>  <cLogS>
-5.711

>  <H-Acceptors>
5

>  <H-Donors>
2

>  <Total Surface Area>
390.37

>  <Relative PSA>
0.15954

>  <Polar Surface Area>
83.83

>  <Druglikeness>
-0.42544

>  <Mutagenic>
none

>  <Tumorigenic>
none

>  <Reproductive Effective>
none

>  <Irritant>
none

>  <Nasty Functions>


>  <Shape Index>
0.45946

>  <Molecular Flexibility>
0.31852

>  <Molecular Complexity>
1.0418

>  <Fragments>
1

>  <Non-H Atoms>
37

>  <Non-C/H Atoms>
5

>  <Metal-Atoms>
0

>  <Electronegative Atoms>
5

>  <Stereo Centers>
8

>  <Rotatable Bonds>
7

>  <Rings Closures>
4

>  <Small Rings>
4

>  <Aromatic Rings>
0

>  <Aromatic Atoms>
0

>  <sp3-Atoms>
27

>  <Symmetric atoms>
1

>  <Amides>
0

>  <Amines>
0

>  <Alkyl-Amines>
0

>  <Aromatic Amines>
0

>  <Aromatic Nitrogens>
0

>  <Basic Nitrogens>
0

>  <Acidic Oxygens>
1

>  <Stereo Configuration>
this enantiomer

> <Gold.Version>
5.8.1

> <Gold.Id.Protein>
ID_2|Prot_COX2_5IKQ_Alig|mol2

> <Gold.Goldscore.Fitness>
-57.1217

> <Gold.Goldscore.Internal.Vdw>
-30.9484

> <Gold.Goldscore.Internal.Torsion>
-14.9485

> <Gold.Goldscore.External.Vdw>
-33.2928

> <Gold.Goldscore.Internal.HBond>
0.0000

> <Gold.Goldscore.External.HBond>
0.0000

> <Gold.Goldscore.Internal.Correction>
-34.5528

> <Gold.Goldscore.Internal.Vdw.Weighted>
-30.9484

> <Gold.Goldscore.Internal.Torsion.Weighted>
-14.9485

> <Gold.Goldscore.External.Vdw.Weighted>
-45.7776

> <Gold.Goldscore.Internal.HBond.Weighted>
0.0000

> <Gold.Goldscore.External.HBond.Weighted>
0.0000

> <Gold.Goldscore.Internal.Correction.Weighted>
-34.5528

> <Gold.Protein.RotatedTorsions>
[ 5077 5068 5067 5065 ] final  177.09 input  179.94 | X-H torsion
[ 5157 5152 5151 5148 ] final -150.35 input -179.92 | X-H torsion
[ 5185 5176 5175 5173 ] final   -5.29 input -179.99 | X-H torsion
[ 5712 5703 5702 5700 ] final  132.20 input  180.00 | X-H torsion
[ 8036 8031 8030 8027 ] final -158.21 input -179.94 | X-H torsion
[ 2749 2745 2743 2740 ] final  135.07 input  -60.05 | X-H torsion
[ 1366 1361 1360 1357 ] final   66.76 input  -60.09 | X-H torsion
[ 2556 2551 2550 2547 ] final  105.79 input   59.97 | X-H torsion

> <Gold.Protein.ActiveResidues>
 PRO86   VAL89   HIS90   LEU93   THR94   ILE112  MET113  TYR115  VAL116  LEU117 
 THR118  SER119  ARG120  SER121  LEU123  ILE124  GLN192  SER194  PHE198  PHE201 
 ALA202  GLN203  PHE205  THR206  PHE209  PHE210  VAL228  ILE341  ILE343  VAL344 
 ILE345  GLU346  ASP347  TYR348  VAL349  GLN350  HIS351  LEU352  SER353  GLY354 
 TYR355  PHE357  LEU359  LYS360  GLU380  PHE381  ASN382  THR383  LEU384  TYR385 
 HIS386  TRP387  LEU390  VAL434  LEU507  ARG513  ALA516  ILE517  PHE518  GLY519 
 GLU520  THR521  MET522  VAL523  GLU524  VAL525  GLY526  ALA527  PRO528  PHE529 
 SER530  LEU531  LYS532  GLY533  LEU534  MET535  COH609 

> <Gold.Protein.RotatedAtoms>
   18.0230    7.0166    1.9020 H   0  0  0  0  0  0  0  0  0  0  0  0  # atno 1366 bound_to 1361
    5.0074  -10.0380    6.8471 H   0  0  0  0  0  0  0  0  0  0  0  0  # atno 2556 bound_to 2551
   -3.2497   -0.1610   -0.1668 H   0  0  0  0  0  0  0  0  0  0  0  0  # atno 2749 bound_to 2745
    1.9056   -1.5471    3.6820 H   0  0  0  0  0  0  0  0  0  0  0  0  # atno 5077 bound_to 5068
   11.9957   -1.3440    9.2524 H   0  0  0  0  0  0  0  0  0  0  0  0  # atno 5157 bound_to 5152
   16.1193   -1.0674    4.7144 H   0  0  0  0  0  0  0  0  0  0  0  0  # atno 5185 bound_to 5176
    3.0463   -0.2476    2.3708 H   0  0  0  0  0  0  0  0  0  0  0  0  # atno 5712 bound_to 5703
    6.0155    3.8941    3.6328 H   0  0  0  0  0  0  0  0  0  0  0  0  # atno 8036 bound_to 8031
    0.4965   -1.8604    4.1036 LP  0  0  0  0  0  0  0  0  0  0  0  0  # atno 8267 bound_to 5068
    1.7059   -2.9557    4.1693 LP  0  0  0  0  0  0  0  0  0  0  0  0  # atno 8268 bound_to 5068
   13.0414   -2.4248    9.1949 LP  0  0  0  0  0  0  0  0  0  0  0  0  # atno 8279 bound_to 5152
   11.4451   -2.7427    9.3267 LP  0  0  0  0  0  0  0  0  0  0  0  0  # atno 8280 bound_to 5152
   16.3993    0.3539    5.1146 LP  0  0  0  0  0  0  0  0  0  0  0  0  # atno 8281 bound_to 5176
   14.9009   -0.1886    4.7581 LP  0  0  0  0  0  0  0  0  0  0  0  0  # atno 8282 bound_to 5176
    1.9597   -1.1638    2.8594 LP  0  0  0  0  0  0  0  0  0  0  0  0  # atno 8283 bound_to 5703
    1.7557    0.4486    2.7001 LP  0  0  0  0  0  0  0  0  0  0  0  0  # atno 8284 bound_to 5703
    4.6275    4.2717    3.1957 LP  0  0  0  0  0  0  0  0  0  0  0  0  # atno 8309 bound_to 8031
    5.7670    5.3759    3.5820 LP  0  0  0  0  0  0  0  0  0  0  0  0  # atno 8310 bound_to 8031
   -4.3212    0.2850    0.7904 LP  0  0  0  0  0  0  0  0  0  0  0  0  # atno 8323 bound_to 2745
   -2.9978   -0.5451    1.2658 LP  0  0  0  0  0  0  0  0  0  0  0  0  # atno 8324 bound_to 2745
   17.7383    7.8406    3.1283 LP  0  0  0  0  0  0  0  0  0  0  0  0  # atno 8335 bound_to 1361
   18.8996    6.6935    3.0815 LP  0  0  0  0  0  0  0  0  0  0  0  0  # atno 8336 bound_to 1361
    5.0857   -9.5751    8.2767 LP  0  0  0  0  0  0  0  0  0  0  0  0  # atno 8342 bound_to 2551
    4.4543   -8.6585    7.0819 LP  0  0  0  0  0  0  0  0  0  0  0  0  # atno 8343 bound_to 2551

