
192|LMW3_p|sdf|192|dock3
  -GOLD-   61022 2453D 1   1.00000     0.00000

 78 81  0  0  0  0  0  0  0  0  2 V2000
   20.4058    2.4110    2.1820 O   0  0  0  0  0  0  0  0  0  0  0  0
   19.5877    2.9515    2.9062 C   0  0  0  0  0  0  0  0  0  0  0  0
   19.6438    4.2742    3.1349 O   0  5  0  0  0  0  0  0  0  0  0  0
   18.4692    2.2607    3.6032 C   0  0  0  0  0  0  0  0  0  0  0  0
   17.6461    2.9389    4.4291 C   0  0  0  0  0  0  0  0  0  0  0  0
   18.3633    0.7999    3.2739 C   0  0  0  0  0  0  0  0  0  0  0  0
   16.4967    2.3838    5.2261 C   0  0  0  0  0  0  0  0  0  0  0  0
   15.2568    3.2777    5.0997 C   0  0  0  0  0  0  0  0  0  0  0  0
   13.9332    2.5852    5.5282 C   0  0  2  0  0  0  0  0  0  0  0  0
   13.3385    1.7776    4.3336 C   0  0  2  0  0  0  0  0  0  0  0  0
   12.9458    3.6263    6.0667 C   0  0  0  0  0  0  0  0  0  0  0  0
   11.8234    1.4083    4.3155 C   0  0  2  0  0  0  0  0  0  0  0  0
   14.0218    0.3844    4.1714 C   0  0  0  0  0  0  0  0  0  0  0  0
   11.7813    0.2845    3.2168 C   0  0  1  0  0  0  0  0  0  0  0  0
   10.8393    2.5085    3.8762 C   0  0  0  0  0  0  0  0  0  0  0  0
   11.4011    0.8926    5.7301 C   0  0  0  0  0  0  0  0  0  0  0  0
   12.9553   -0.6042    3.6644 C   0  0  0  0  0  0  0  0  0  0  0  0
   10.3808   -0.3258    3.1294 C   0  0  0  0  0  0  0  0  0  0  0  0
   12.1202    0.7705    1.7701 C   0  0  0  0  0  0  0  0  0  0  0  0
    9.4865    1.9227    3.5266 C   0  0  0  0  0  0  0  0  0  0  0  0
    9.2460    0.6197    3.2451 C   0  0  0  0  0  0  0  0  0  0  0  0
   10.1836   -1.6368    2.9042 C   0  0  0  0  0  0  0  0  0  0  0  0
    7.8176    0.0284    3.1478 C   0  0  2  0  0  0  0  0  0  0  0  0
    8.8476   -2.2593    2.6491 C   0  0  0  0  0  0  0  0  0  0  0  0
    7.7611   -1.2452    2.2226 C   0  0  2  0  0  0  0  0  0  0  0  0
    6.7157    1.0269    2.6936 C   0  0  0  0  0  0  0  0  0  0  0  0
    7.4338   -0.3772    4.6034 C   0  0  0  0  0  0  0  0  0  0  0  0
    7.7128   -0.9554    0.6616 C   0  0  0  0  0  0  0  0  0  0  0  0
    6.7813    1.3794    1.2137 C   0  0  0  0  0  0  0  0  0  0  0  0
    6.6497    0.1359    0.3381 C   0  0  2  0  0  0  0  0  0  0  0  0
    9.0594   -0.4955    0.0638 C   0  0  0  0  0  0  0  0  0  0  0  0
    7.3194   -2.2537   -0.0938 C   0  0  0  0  0  0  0  0  0  0  0  0
    5.3178   -0.3730    0.4564 O   0  0  0  0  0  0  0  0  0  0  0  0
   17.8244    3.9508    4.5251 H   0  0  0  0  0  0  0  0  0  0  0  0
   18.5456    0.2215    4.1554 H   0  0  0  0  0  0  0  0  0  0  0  0
   19.0871    0.5493    2.5267 H   0  0  0  0  0  0  0  0  0  0  0  0
   17.3816    0.5877    2.9048 H   0  0  0  0  0  0  0  0  0  0  0  0
   16.7815    2.3242    6.2558 H   0  0  0  0  0  0  0  0  0  0  0  0
   16.2565    1.4126    4.8466 H   0  0  0  0  0  0  0  0  0  0  0  0
   15.1628    3.5805    4.0778 H   0  0  0  0  0  0  0  0  0  0  0  0
   15.4024    4.1051    5.7623 H   0  0  0  0  0  0  0  0  0  0  0  0
   14.1321    1.8908    6.3176 H   0  0  0  0  0  0  0  0  0  0  0  0
   13.5184    2.5005    3.5655 H   0  0  0  0  0  0  0  0  0  0  0  0
   13.3913    4.1497    6.8867 H   0  0  0  0  0  0  0  0  0  0  0  0
   12.0552    3.1349    6.3988 H   0  0  0  0  0  0  0  0  0  0  0  0
   12.7015    4.3211    5.2905 H   0  0  0  0  0  0  0  0  0  0  0  0
   14.4053    0.0547    5.1143 H   0  0  0  0  0  0  0  0  0  0  0  0
   14.8358    0.4446    3.4796 H   0  0  0  0  0  0  0  0  0  0  0  0
   11.2356    3.0093    3.0176 H   0  0  0  0  0  0  0  0  0  0  0  0
   10.7131    3.1949    4.6872 H   0  0  0  0  0  0  0  0  0  0  0  0
   12.2637    0.8340    6.3606 H   0  0  0  0  0  0  0  0  0  0  0  0
   10.9595   -0.0777    5.6389 H   0  0  0  0  0  0  0  0  0  0  0  0
   10.6911    1.5686    6.1590 H   0  0  0  0  0  0  0  0  0  0  0  0
   12.6507   -1.2656    4.4484 H   0  0  0  0  0  0  0  0  0  0  0  0
   13.3206   -1.2225    2.8713 H   0  0  0  0  0  0  0  0  0  0  0  0
   11.4325    1.5377    1.4813 H   0  0  0  0  0  0  0  0  0  0  0  0
   12.0430   -0.0521    1.0902 H   0  0  0  0  0  0  0  0  0  0  0  0
   13.1171    1.1586    1.7486 H   0  0  0  0  0  0  0  0  0  0  0  0
    8.6826    2.5693    3.5009 H   0  0  0  0  0  0  0  0  0  0  0  0
   11.0098   -2.2552    2.9077 H   0  0  0  0  0  0  0  0  0  0  0  0
    8.5239   -2.7439    3.5465 H   0  0  0  0  0  0  0  0  0  0  0  0
    8.9718   -2.9448    1.8370 H   0  0  0  0  0  0  0  0  0  0  0  0
    6.8050   -1.6977    2.3840 H   0  0  0  0  0  0  0  0  0  0  0  0
    6.8221    1.9281    3.2605 H   0  0  0  0  0  0  0  0  0  0  0  0
    5.7730    0.5488    2.8597 H   0  0  0  0  0  0  0  0  0  0  0  0
    7.3719    0.4996    5.2134 H   0  0  0  0  0  0  0  0  0  0  0  0
    8.1796   -1.0349    4.9987 H   0  0  0  0  0  0  0  0  0  0  0  0
    6.4866   -0.8749    4.5970 H   0  0  0  0  0  0  0  0  0  0  0  0
    7.7197    1.8512    1.0095 H   0  0  0  0  0  0  0  0  0  0  0  0
    5.9682    2.0374    0.9882 H   0  0  0  0  0  0  0  0  0  0  0  0
    6.8399    0.4197   -0.6759 H   0  0  0  0  0  0  0  0  0  0  0  0
    8.9533   -0.3607   -0.9923 H   0  0  0  0  0  0  0  0  0  0  0  0
    9.8066   -1.2370    0.2556 H   0  0  0  0  0  0  0  0  0  0  0  0
    9.3518    0.4302    0.5139 H   0  0  0  0  0  0  0  0  0  0  0  0
    8.1759   -2.8890   -0.1812 H   0  0  0  0  0  0  0  0  0  0  0  0
    6.9600   -2.0034   -1.0700 H   0  0  0  0  0  0  0  0  0  0  0  0
    6.5512   -2.7634    0.4492 H   0  0  0  0  0  0  0  0  0  0  0  0
    4.6947    0.2569    0.0617 H   0  0  0  0  0  0  0  0  0  0  0  0
  1  2  2  0  0  0  0
  2  3  1  0  0  0  0
  2  4  1  0  0  0  0
  4  5  2  0  0  0  0
  4  6  1  0  0  0  0
  5  7  1  0  0  0  0
  5 34  1  0  0  0  0
  6 35  1  0  0  0  0
  6 36  1  0  0  0  0
  6 37  1  0  0  0  0
  7  8  1  0  0  0  0
  7 38  1  0  0  0  0
  7 39  1  0  0  0  0
  8  9  1  0  0  0  0
  8 40  1  0  0  0  0
  8 41  1  0  0  0  0
  9 10  1  0  0  0  0
  9 11  1  0  0  0  0
  9 42  1  0  0  0  0
 10 12  1  0  0  0  0
 10 13  1  0  0  0  0
 10 43  1  0  0  0  0
 11 44  1  0  0  0  0
 11 45  1  0  0  0  0
 11 46  1  0  0  0  0
 12 14  1  0  0  0  0
 12 15  1  0  0  0  0
 12 16  1  0  0  0  0
 13 17  1  0  0  0  0
 13 47  1  0  0  0  0
 13 48  1  0  0  0  0
 14 18  1  0  0  0  0
 14 19  1  0  0  0  0
 14 17  1  0  0  0  0
 15 20  1  0  0  0  0
 15 49  1  0  0  0  0
 15 50  1  0  0  0  0
 16 51  1  0  0  0  0
 16 52  1  0  0  0  0
 16 53  1  0  0  0  0
 17 54  1  0  0  0  0
 17 55  1  0  0  0  0
 18 21  1  0  0  0  0
 18 22  2  0  0  0  0
 19 56  1  0  0  0  0
 19 57  1  0  0  0  0
 19 58  1  0  0  0  0
 20 21  2  0  0  0  0
 20 59  1  0  0  0  0
 21 23  1  0  0  0  0
 22 24  1  0  0  0  0
 22 60  1  0  0  0  0
 23 25  1  0  0  0  0
 23 26  1  0  0  0  0
 23 27  1  0  0  0  0
 24 25  1  0  0  0  0
 24 61  1  0  0  0  0
 24 62  1  0  0  0  0
 25 28  1  0  0  0  0
 25 63  1  0  0  0  0
 26 29  1  0  0  0  0
 26 64  1  0  0  0  0
 26 65  1  0  0  0  0
 27 66  1  0  0  0  0
 27 67  1  0  0  0  0
 27 68  1  0  0  0  0
 28 30  1  0  0  0  0
 28 31  1  0  0  0  0
 28 32  1  0  0  0  0
 29 30  1  0  0  0  0
 29 69  1  0  0  0  0
 29 70  1  0  0  0  0
 30 33  1  0  0  0  0
 30 71  1  0  0  0  0
 31 72  1  0  0  0  0
 31 73  1  0  0  0  0
 31 74  1  0  0  0  0
 32 75  1  0  0  0  0
 32 76  1  0  0  0  0
 32 77  1  0  0  0  0
 33 78  1  0  0  0  0
M  CHG  1   3  -1
M  END
>  <Code-name>
192

>  <Compound>
Ganoderic Acid Y

>  <Specie>
ganoderma lucidum

>  <Reference>
Paterson 2009

>  <Organism>
Inhibitor dna-topoisomerase

>  <Smiles>
C[C@H](CC/C=C(\C)/C(O)=O)[C@@H](CC1)[C@]2(C)[C@]1(C)C1=CC[C@H](C(C)(C)[C@H](CC3)O)[C@@]3(C)C1=CC2

>  <MMFF94 Energy>
85.212

>  <Total Molweight>
454.692

>  <Molweight>
454.692

>  <Monoisotopic Mass>
454.344695

>  <cLogP>
6.8699

>  <cLogS>
-5.7

>  <H-Acceptors>
3

>  <H-Donors>
2

>  <Total Surface Area>
351.62

>  <Relative PSA>
0.1116

>  <Polar Surface Area>
57.53

>  <Druglikeness>
-1.4959

>  <Mutagenic>
none

>  <Tumorigenic>
none

>  <Reproductive Effective>
none

>  <Irritant>
none

>  <Nasty Functions>


>  <Shape Index>
0.51515

>  <Molecular Flexibility>
0.33466

>  <Molecular Complexity>
0.99887

>  <Fragments>
1

>  <Non-H Atoms>
33

>  <Non-C/H Atoms>
3

>  <Metal-Atoms>
0

>  <Electronegative Atoms>
3

>  <Stereo Centers>
7

>  <Rotatable Bonds>
5

>  <Rings Closures>
4

>  <Small Rings>
4

>  <Aromatic Rings>
0

>  <Aromatic Atoms>
0

>  <sp3-Atoms>
25

>  <Symmetric atoms>
1

>  <Amides>
0

>  <Amines>
0

>  <Alkyl-Amines>
0

>  <Aromatic Amines>
0

>  <Aromatic Nitrogens>
0

>  <Basic Nitrogens>
0

>  <Acidic Oxygens>
1

>  <Stereo Configuration>
this enantiomer

> <Gold.Version>
5.8.1

> <Gold.Id.Protein>
ID_2|Prot_COX2_5IKQ_Alig|mol2

> <Gold.Goldscore.Fitness>
-32.5704

> <Gold.Goldscore.Internal.Vdw>
-29.8434

> <Gold.Goldscore.Internal.Torsion>
-7.5867

> <Gold.Goldscore.External.Vdw>
-16.3941

> <Gold.Goldscore.Internal.HBond>
0.0000

> <Gold.Goldscore.External.HBond>
2.3891

> <Gold.Goldscore.Internal.Correction>
-25.0126

> <Gold.Goldscore.Hbonds>
donor molecule, donor type, donor heavy atom, donor atom, acceptor molecule, acceptor atom, score
      P1  H  1361  1366       L1     3  0.40

> <Gold.Goldscore.Internal.Vdw.Weighted>
-29.8434

> <Gold.Goldscore.Internal.Torsion.Weighted>
-7.5867

> <Gold.Goldscore.External.Vdw.Weighted>
-22.5419

> <Gold.Goldscore.Internal.HBond.Weighted>
0.0000

> <Gold.Goldscore.External.HBond.Weighted>
2.3891

> <Gold.Goldscore.Internal.Correction.Weighted>
-25.0126

> <Gold.Protein.RotatedTorsions>
[ 5077 5068 5067 5065 ] final -179.78 input  179.94 | X-H torsion
[ 5157 5152 5151 5148 ] final -150.79 input -179.92 | X-H torsion
[ 5185 5176 5175 5173 ] final  -32.28 input -179.99 | X-H torsion
[ 5712 5703 5702 5700 ] final  126.00 input  180.00 | X-H torsion
[ 8036 8031 8030 8027 ] final -123.15 input -179.94 | X-H torsion
[ 2749 2745 2743 2740 ] final -160.10 input  -60.05 | X-H torsion
[ 1366 1361 1360 1357 ] final  159.37 input  -60.09 | X-H torsion
[ 2556 2551 2550 2547 ] final  -40.02 input   59.97 | X-H torsion

> <Gold.Protein.ActiveResidues>
 PRO86   VAL89   HIS90   LEU93   THR94   ILE112  MET113  TYR115  VAL116  LEU117 
 THR118  SER119  ARG120  SER121  LEU123  ILE124  GLN192  SER194  PHE198  PHE201 
 ALA202  GLN203  PHE205  THR206  PHE209  PHE210  VAL228  ILE341  ILE343  VAL344 
 ILE345  GLU346  ASP347  TYR348  VAL349  GLN350  HIS351  LEU352  SER353  GLY354 
 TYR355  PHE357  LEU359  LYS360  GLU380  PHE381  ASN382  THR383  LEU384  TYR385 
 HIS386  TRP387  LEU390  VAL434  LEU507  ARG513  ALA516  ILE517  PHE518  GLY519 
 GLU520  THR521  MET522  VAL523  GLU524  VAL525  GLY526  ALA527  PRO528  PHE529 
 SER530  LEU531  LYS532  GLY533  LEU534  MET535  COH609 

> <Gold.Protein.RotatedAtoms>
   18.7973    6.6457    2.6563 H   0  0  0  0  0  0  0  0  0  0  0  0  # atno 1366 bound_to 1361
    4.8620   -9.2554    8.1313 H   0  0  0  0  0  0  0  0  0  0  0  0  # atno 2556 bound_to 2551
   -2.8099   -0.4999    0.4725 H   0  0  0  0  0  0  0  0  0  0  0  0  # atno 2749 bound_to 2745
    1.9367   -1.5767    3.6842 H   0  0  0  0  0  0  0  0  0  0  0  0  # atno 5077 bound_to 5068
   12.0016   -1.3428    9.2519 H   0  0  0  0  0  0  0  0  0  0  0  0  # atno 5157 bound_to 5152
   16.4151   -0.8711    4.8104 H   0  0  0  0  0  0  0  0  0  0  0  0  # atno 5185 bound_to 5176
    3.0525   -0.3321    2.3804 H   0  0  0  0  0  0  0  0  0  0  0  0  # atno 5712 bound_to 5703
    6.2403    4.3057    3.7075 H   0  0  0  0  0  0  0  0  0  0  0  0  # atno 8036 bound_to 8031
    0.5068   -1.8136    4.0849 LP  0  0  0  0  0  0  0  0  0  0  0  0  # atno 8267 bound_to 5068
    1.6584   -2.9669    4.1854 LP  0  0  0  0  0  0  0  0  0  0  0  0  # atno 8268 bound_to 5068
   13.0391   -2.4316    9.1950 LP  0  0  0  0  0  0  0  0  0  0  0  0  # atno 8279 bound_to 5152
   11.4404   -2.7372    9.3271 LP  0  0  0  0  0  0  0  0  0  0  0  0  # atno 8280 bound_to 5152
   16.0006    0.5410    5.1150 LP  0  0  0  0  0  0  0  0  0  0  0  0  # atno 8281 bound_to 5176
   14.9444   -0.6114    4.6425 LP  0  0  0  0  0  0  0  0  0  0  0  0  # atno 8282 bound_to 5176
    1.8713   -1.1164    2.8788 LP  0  0  0  0  0  0  0  0  0  0  0  0  # atno 8283 bound_to 5703
    1.8366    0.5027    2.6691 LP  0  0  0  0  0  0  0  0  0  0  0  0  # atno 8284 bound_to 5703
    4.8949    3.7795    3.2920 LP  0  0  0  0  0  0  0  0  0  0  0  0  # atno 8309 bound_to 8031
    5.2299    5.3743    3.3961 LP  0  0  0  0  0  0  0  0  0  0  0  0  # atno 8310 bound_to 8031
   -3.9772    0.2096   -0.1579 LP  0  0  0  0  0  0  0  0  0  0  0  0  # atno 8323 bound_to 2745
   -3.8686   -0.0638    1.4484 LP  0  0  0  0  0  0  0  0  0  0  0  0  # atno 8324 bound_to 2745
   17.6721    7.2813    1.8857 LP  0  0  0  0  0  0  0  0  0  0  0  0  # atno 8335 bound_to 1361
   18.0395    7.6963    3.4217 LP  0  0  0  0  0  0  0  0  0  0  0  0  # atno 8336 bound_to 1361
    4.4951   -8.8780    6.7217 LP  0  0  0  0  0  0  0  0  0  0  0  0  # atno 8342 bound_to 2551
    5.2189  -10.2919    7.1006 LP  0  0  0  0  0  0  0  0  0  0  0  0  # atno 8343 bound_to 2551

