
196|LMW3_p|sdf|196|dock1
  -GOLD-   61022 3 63D 1   1.00000     0.00000

 79 82  0  0  0  0  0  0  0  0  2 V2000
    9.0191    3.4774    4.2160 O   0  0  0  0  0  0  0  0  0  0  0  0
    9.2566    2.3870    3.6997 C   0  0  0  0  0  0  0  0  0  0  0  0
   10.4720    1.5907    4.0683 C   0  0  0  0  0  0  0  0  0  0  0  0
    8.3220    1.8409    2.6552 C   0  0  0  0  0  0  0  0  0  0  0  0
   10.6518    0.3264    3.5918 C   0  0  0  0  0  0  0  0  0  0  0  0
   11.4890    2.2608    4.9913 C   0  0  1  0  0  0  0  0  0  0  0  0
    8.2516    0.3154    2.7505 C   0  0  2  0  0  0  0  0  0  0  0  0
    9.6752   -0.3215    2.5434 C   0  0  2  0  0  0  0  0  0  0  0  0
   11.9154   -0.4574    3.9789 C   0  0  2  0  0  0  0  0  0  0  0  0
   12.9295    1.7453    4.6481 C   0  0  1  0  0  0  0  0  0  0  0  0
   11.7274    3.7773    4.8509 C   0  0  0  0  0  0  0  0  0  0  0  0
   11.0204    1.9700    6.4420 C   0  0  0  0  0  0  0  0  0  0  0  0
    7.0482   -0.2913    1.9356 C   0  0  2  0  0  0  0  0  0  0  0  0
    9.4983   -1.8725    2.6922 C   0  0  2  0  0  0  0  0  0  0  0  0
   10.3098    0.0036    1.1667 C   0  0  0  0  0  0  0  0  0  0  0  0
   11.5527   -1.6319    4.6986 O   0  0  0  0  0  0  0  0  0  0  0  0
   12.9666    0.2460    4.8607 C   0  0  0  0  0  0  0  0  0  0  0  0
   13.2270    2.0082    3.2607 O   0  0  0  0  0  0  0  0  0  0  0  0
   13.8479    2.6451    5.5124 C   0  0  2  0  0  0  0  0  0  0  0  0
   13.1392    4.0246    5.4032 C   0  0  0  0  0  0  0  0  0  0  0  0
    5.7657    0.1674    2.6521 C   0  0  0  0  0  0  0  0  0  0  0  0
    7.0487   -1.8377    2.0599 C   0  0  2  0  0  0  0  0  0  0  0  0
    7.0089    0.1411    0.4546 C   0  0  0  0  0  0  0  0  0  0  0  0
   10.7142   -2.5837    2.4136 O   0  0  0  0  0  0  0  0  0  0  0  0
    8.4119   -2.4598    1.7929 C   0  0  0  0  0  0  0  0  0  0  0  0
   15.3572    2.7713    5.1540 C   0  0  2  0  0  0  0  0  0  0  0  0
    5.6778    1.1070    3.4283 O   0  0  0  0  0  0  0  0  0  0  0  0
    4.6534   -0.5047    2.3041 O   0  5  0  0  0  0  0  0  0  0  0  0
    6.0931   -2.4379    1.1819 O   0  0  0  0  0  0  0  0  0  0  0  0
   16.0080    1.4992    4.5703 C   0  0  0  0  0  0  0  0  0  0  0  0
   16.1693    3.2498    6.3721 C   0  0  0  0  0  0  0  0  0  0  0  0
   17.5000    1.6193    4.2439 C   0  0  0  0  0  0  0  0  0  0  0  0
   17.9167    0.5779    3.2414 C   0  0  0  0  0  0  0  0  0  0  0  0
   18.7288    0.7419    2.1789 C   0  0  0  0  0  0  0  0  0  0  0  0
   19.3477    2.0467    1.7594 C   0  0  0  0  0  0  0  0  0  0  0  0
   19.0778   -0.4241    1.2911 C   0  0  0  0  0  0  0  0  0  0  0  0
    8.6769    2.1179    1.6845 H   0  0  0  0  0  0  0  0  0  0  0  0
    7.3446    2.2451    2.8173 H   0  0  0  0  0  0  0  0  0  0  0  0
    7.9901    0.0256    3.7468 H   0  0  0  0  0  0  0  0  0  0  0  0
   12.3722   -0.6213    3.0253 H   0  0  0  0  0  0  0  0  0  0  0  0
   11.0031    4.3236    5.4182 H   0  0  0  0  0  0  0  0  0  0  0  0
   11.6368    4.1007    3.8350 H   0  0  0  0  0  0  0  0  0  0  0  0
   10.2087    2.6208    6.6918 H   0  0  0  0  0  0  0  0  0  0  0  0
   11.8321    2.1362    7.1191 H   0  0  0  0  0  0  0  0  0  0  0  0
   10.6975    0.9526    6.5153 H   0  0  0  0  0  0  0  0  0  0  0  0
    9.2088   -1.9999    3.7143 H   0  0  0  0  0  0  0  0  0  0  0  0
    9.5815    0.4753    0.5406 H   0  0  0  0  0  0  0  0  0  0  0  0
   10.6440   -0.9021    0.7051 H   0  0  0  0  0  0  0  0  0  0  0  0
   11.1420    0.6619    1.3041 H   0  0  0  0  0  0  0  0  0  0  0  0
   12.3149   -2.2299    4.7467 H   0  0  0  0  0  0  0  0  0  0  0  0
   13.9394   -0.1205    4.6071 H   0  0  0  0  0  0  0  0  0  0  0  0
   12.7471    0.0393    5.8874 H   0  0  0  0  0  0  0  0  0  0  0  0
   13.3511    2.9616    3.1316 H   0  0  0  0  0  0  0  0  0  0  0  0
   13.9373    2.2064    6.4842 H   0  0  0  0  0  0  0  0  0  0  0  0
   13.0787    4.4814    6.3689 H   0  0  0  0  0  0  0  0  0  0  0  0
   13.6867    4.6789    4.7575 H   0  0  0  0  0  0  0  0  0  0  0  0
    6.7830   -2.0345    3.0775 H   0  0  0  0  0  0  0  0  0  0  0  0
    6.0418   -0.0682    0.0475 H   0  0  0  0  0  0  0  0  0  0  0  0
    7.7516   -0.3991   -0.0945 H   0  0  0  0  0  0  0  0  0  0  0  0
    7.2061    1.1904    0.3841 H   0  0  0  0  0  0  0  0  0  0  0  0
   10.6609   -3.4755    2.7913 H   0  0  0  0  0  0  0  0  0  0  0  0
    8.3506   -3.5134    1.9690 H   0  0  0  0  0  0  0  0  0  0  0  0
    8.6762   -2.2503    0.7774 H   0  0  0  0  0  0  0  0  0  0  0  0
   15.3827    3.4976    4.3686 H   0  0  0  0  0  0  0  0  0  0  0  0
    6.4198   -2.3938    0.2697 H   0  0  0  0  0  0  0  0  0  0  0  0
   15.4912    1.2476    3.6677 H   0  0  0  0  0  0  0  0  0  0  0  0
   15.9302    0.7507    5.3309 H   0  0  0  0  0  0  0  0  0  0  0  0
   16.9056    3.9581    6.0540 H   0  0  0  0  0  0  0  0  0  0  0  0
   16.6540    2.4124    6.8290 H   0  0  0  0  0  0  0  0  0  0  0  0
   15.5127    3.7114    7.0796 H   0  0  0  0  0  0  0  0  0  0  0  0
   18.0665    1.4873    5.1419 H   0  0  0  0  0  0  0  0  0  0  0  0
   17.6813    2.5875    3.8260 H   0  0  0  0  0  0  0  0  0  0  0  0
   17.5370   -0.3710    3.3839 H   0  0  0  0  0  0  0  0  0  0  0  0
   20.2295    1.8547    1.1846 H   0  0  0  0  0  0  0  0  0  0  0  0
   19.6052    2.6151    2.6286 H   0  0  0  0  0  0  0  0  0  0  0  0
   18.6486    2.5987    1.1665 H   0  0  0  0  0  0  0  0  0  0  0  0
   20.0387   -0.8064    1.5658 H   0  0  0  0  0  0  0  0  0  0  0  0
   19.1005   -0.1015    0.2711 H   0  0  0  0  0  0  0  0  0  0  0  0
   18.3421   -1.1925    1.4059 H   0  0  0  0  0  0  0  0  0  0  0  0
  1  2  2  0  0  0  0
  2  3  1  0  0  0  0
  2  4  1  0  0  0  0
  3  5  2  0  0  0  0
  3  6  1  0  0  0  0
  4  7  1  0  0  0  0
  4 37  1  0  0  0  0
  4 38  1  0  0  0  0
  5  8  1  0  0  0  0
  5  9  1  0  0  0  0
  6 10  1  0  0  0  0
  6 11  1  0  0  0  0
  6 12  1  0  0  0  0
  7 13  1  0  0  0  0
  7  8  1  0  0  0  0
  7 39  1  0  0  0  0
  8 14  1  0  0  0  0
  8 15  1  0  0  0  0
  9 16  1  0  0  0  0
  9 17  1  0  0  0  0
  9 40  1  0  0  0  0
 10 18  1  0  0  0  0
 10 19  1  0  0  0  0
 10 17  1  0  0  0  0
 11 20  1  0  0  0  0
 11 41  1  0  0  0  0
 11 42  1  0  0  0  0
 12 43  1  0  0  0  0
 12 44  1  0  0  0  0
 12 45  1  0  0  0  0
 13 21  1  0  0  0  0
 13 22  1  0  0  0  0
 13 23  1  0  0  0  0
 14 24  1  0  0  0  0
 14 25  1  0  0  0  0
 14 46  1  0  0  0  0
 15 47  1  0  0  0  0
 15 48  1  0  0  0  0
 15 49  1  0  0  0  0
 16 50  1  0  0  0  0
 17 51  1  0  0  0  0
 17 52  1  0  0  0  0
 18 53  1  0  0  0  0
 19 26  1  0  0  0  0
 19 20  1  0  0  0  0
 19 54  1  0  0  0  0
 20 55  1  0  0  0  0
 20 56  1  0  0  0  0
 21 27  2  0  0  0  0
 21 28  1  0  0  0  0
 22 29  1  0  0  0  0
 22 25  1  0  0  0  0
 22 57  1  0  0  0  0
 23 58  1  0  0  0  0
 23 59  1  0  0  0  0
 23 60  1  0  0  0  0
 24 61  1  0  0  0  0
 25 62  1  0  0  0  0
 25 63  1  0  0  0  0
 26 30  1  0  0  0  0
 26 31  1  0  0  0  0
 26 64  1  0  0  0  0
 29 65  1  0  0  0  0
 30 32  1  0  0  0  0
 30 66  1  0  0  0  0
 30 67  1  0  0  0  0
 31 68  1  0  0  0  0
 31 69  1  0  0  0  0
 31 70  1  0  0  0  0
 32 33  1  0  0  0  0
 32 71  1  0  0  0  0
 32 72  1  0  0  0  0
 33 34  2  0  0  0  0
 33 73  1  0  0  0  0
 34 35  1  0  0  0  0
 34 36  1  0  0  0  0
 35 74  1  0  0  0  0
 35 75  1  0  0  0  0
 35 76  1  0  0  0  0
 36 77  1  0  0  0  0
 36 78  1  0  0  0  0
 36 79  1  0  0  0  0
M  CHG  1  28  -1
M  END
>  <Code-name>
196

>  <Compound>
Fomitellic acids A

>  <Specie>
Fomitella fraxinea

>  <Reference>
zaidman 2005

>  <Organism>
N/A

>  <Smiles>
C[C@@H](CCC=C(C)C)[C@@H](CC[C@@]1(C)C(C(C[C@H]2[C@@](C)([C@H](C3)O)C(O)=O)=O)=C([C@@H](C4)O)[C@@]2(C)[C@@H]3O)[C@]14O

>  <MMFF94 Energy>
95.471

>  <Total Molweight>
504.661

>  <Molweight>
504.661

>  <Monoisotopic Mass>
504.308705

>  <cLogP>
3.5778

>  <cLogS>
-4.155

>  <H-Acceptors>
7

>  <H-Donors>
5

>  <Total Surface Area>
360.9

>  <Relative PSA>
0.25375

>  <Polar Surface Area>
135.29

>  <Druglikeness>
-1.0745

>  <Mutagenic>
none

>  <Tumorigenic>
none

>  <Reproductive Effective>
none

>  <Irritant>
high

>  <Nasty Functions>


>  <Shape Index>
0.44444

>  <Molecular Flexibility>
0.30211

>  <Molecular Complexity>
1.0611

>  <Fragments>
1

>  <Non-H Atoms>
36

>  <Non-C/H Atoms>
7

>  <Metal-Atoms>
0

>  <Electronegative Atoms>
7

>  <Stereo Centers>
10

>  <Rotatable Bonds>
5

>  <Rings Closures>
4

>  <Small Rings>
4

>  <Aromatic Rings>
0

>  <Aromatic Atoms>
0

>  <sp3-Atoms>
28

>  <Symmetric atoms>
1

>  <Amides>
0

>  <Amines>
0

>  <Alkyl-Amines>
0

>  <Aromatic Amines>
0

>  <Aromatic Nitrogens>
0

>  <Basic Nitrogens>
0

>  <Acidic Oxygens>
1

>  <Stereo Configuration>
this enantiomer

> <Gold.Version>
5.8.1

> <Gold.Id.Protein>
ID_2|Prot_COX2_5IKQ_Alig|mol2

> <Gold.Goldscore.Fitness>
-29.0855

> <Gold.Goldscore.Internal.Vdw>
-29.7457

> <Gold.Goldscore.Internal.Torsion>
-13.1395

> <Gold.Goldscore.External.Vdw>
-22.2065

> <Gold.Goldscore.Internal.HBond>
0.0000

> <Gold.Goldscore.External.HBond>
6.3306

> <Gold.Goldscore.Internal.Correction>
-38.0031

> <Gold.Goldscore.Hbonds>
donor molecule, donor type, donor heavy atom, donor atom, acceptor molecule, acceptor atom, score
      P1  H  5068  5077       L1    28  0.15
      P1  H  5703  5712       L1    28  0.76
      P1  H  8031  8036       L1    27  0.14

> <Gold.Goldscore.Internal.Vdw.Weighted>
-29.7457

> <Gold.Goldscore.Internal.Torsion.Weighted>
-13.1395

> <Gold.Goldscore.External.Vdw.Weighted>
-30.5339

> <Gold.Goldscore.Internal.HBond.Weighted>
0.0000

> <Gold.Goldscore.External.HBond.Weighted>
6.3306

> <Gold.Goldscore.Internal.Correction.Weighted>
-38.0031

> <Gold.Protein.RotatedTorsions>
[ 5077 5068 5067 5065 ] final -162.23 input  179.94 | X-H torsion
[ 5157 5152 5151 5148 ] final  157.28 input -179.92 | X-H torsion
[ 5185 5176 5175 5173 ] final   10.36 input -179.99 | X-H torsion
[ 5712 5703 5702 5700 ] final  115.85 input  180.00 | X-H torsion
[ 8036 8031 8030 8027 ] final  155.19 input -179.94 | X-H torsion
[ 2749 2745 2743 2740 ] final  141.14 input  -60.05 | X-H torsion
[ 1366 1361 1360 1357 ] final  128.19 input  -60.09 | X-H torsion
[ 2556 2551 2550 2547 ] final  128.66 input   59.97 | X-H torsion

> <Gold.Protein.ActiveResidues>
 PRO86   VAL89   HIS90   LEU93   THR94   ILE112  MET113  TYR115  VAL116  LEU117 
 THR118  SER119  ARG120  SER121  LEU123  ILE124  GLN192  SER194  PHE198  PHE201 
 ALA202  GLN203  PHE205  THR206  PHE209  PHE210  VAL228  ILE341  ILE343  VAL344 
 ILE345  GLU346  ASP347  TYR348  VAL349  GLN350  HIS351  LEU352  SER353  GLY354 
 TYR355  PHE357  LEU359  LYS360  GLU380  PHE381  ASN382  THR383  LEU384  TYR385 
 HIS386  TRP387  LEU390  VAL434  LEU507  ARG513  ALA516  ILE517  PHE518  GLY519 
 GLU520  THR521  MET522  VAL523  GLU524  VAL525  GLY526  ALA527  PRO528  PHE529 
 SER530  LEU531  LYS532  GLY533  LEU534  MET535  COH609 

> <Gold.Protein.RotatedAtoms>
   18.6228    6.6207    2.2698 H   0  0  0  0  0  0  0  0  0  0  0  0  # atno 1366 bound_to 1361
    4.8750   -9.8212    6.6637 H   0  0  0  0  0  0  0  0  0  0  0  0  # atno 2556 bound_to 2551
   -3.1833   -0.2032   -0.1383 H   0  0  0  0  0  0  0  0  0  0  0  0  # atno 2749 bound_to 2745
    2.0800   -1.7681    3.7133 H   0  0  0  0  0  0  0  0  0  0  0  0  # atno 5077 bound_to 5068
   12.6672   -1.5240    9.1932 H   0  0  0  0  0  0  0  0  0  0  0  0  # atno 5157 bound_to 5152
   15.9132   -1.1117    4.6741 H   0  0  0  0  0  0  0  0  0  0  0  0  # atno 5185 bound_to 5176
    3.0436   -0.4696    2.4017 H   0  0  0  0  0  0  0  0  0  0  0  0  # atno 5712 bound_to 5703
    5.4585    3.6885    3.4414 H   0  0  0  0  0  0  0  0  0  0  0  0  # atno 8036 bound_to 8031
    0.6123   -1.5700    3.9736 LP  0  0  0  0  0  0  0  0  0  0  0  0  # atno 8267 bound_to 5068
    1.3813   -2.9814    4.2619 LP  0  0  0  0  0  0  0  0  0  0  0  0  # atno 8268 bound_to 5068
   12.4538   -3.0132    9.2377 LP  0  0  0  0  0  0  0  0  0  0  0  0  # atno 8279 bound_to 5152
   11.2296   -1.9389    9.3546 LP  0  0  0  0  0  0  0  0  0  0  0  0  # atno 8280 bound_to 5152
   16.5782    0.1716    5.0861 LP  0  0  0  0  0  0  0  0  0  0  0  0  # atno 8281 bound_to 5176
   14.9695    0.0468    4.8350 LP  0  0  0  0  0  0  0  0  0  0  0  0  # atno 8282 bound_to 5176
    1.7382   -1.0190    2.9044 LP  0  0  0  0  0  0  0  0  0  0  0  0  # atno 8283 bound_to 5703
    1.9804    0.5703    2.6179 LP  0  0  0  0  0  0  0  0  0  0  0  0  # atno 8284 bound_to 5703
    4.7619    5.0049    3.2368 LP  0  0  0  0  0  0  0  0  0  0  0  0  # atno 8309 bound_to 8031
    6.3008    4.8894    3.7705 LP  0  0  0  0  0  0  0  0  0  0  0  0  # atno 8310 bound_to 8031
   -4.3307    0.3033    0.6926 LP  0  0  0  0  0  0  0  0  0  0  0  0  # atno 8323 bound_to 2745
   -3.0678   -0.5128    1.3294 LP  0  0  0  0  0  0  0  0  0  0  0  0  # atno 8324 bound_to 2745
   17.4978    7.6187    2.2219 LP  0  0  0  0  0  0  0  0  0  0  0  0  # atno 8335 bound_to 1361
   18.4226    7.3889    3.5480 LP  0  0  0  0  0  0  0  0  0  0  0  0  # atno 8336 bound_to 1361
    5.2098   -9.8955    8.1288 LP  0  0  0  0  0  0  0  0  0  0  0  0  # atno 8342 bound_to 2551
    4.4886   -8.5975    7.4494 LP  0  0  0  0  0  0  0  0  0  0  0  0  # atno 8343 bound_to 2551

