
204|LMW3_p|sdf|204|dock4
  -GOLD-   61022 3133D 1   1.00000     0.00000

 28 29  0  0  0  0  0  0  0  0  1 V2000
   14.0056    2.3192    4.5460 O   0  0  0  0  0  0  0  0  0  0  0  0
   12.8747    1.8815    4.3613 C   0  0  0  0  0  0  0  0  0  0  0  0
   12.6300    0.5588    4.1236 O   0  0  0  0  0  0  0  0  0  0  0  0
   11.7199    2.7957    4.3915 C   0  0  0  0  0  0  0  0  0  0  0  0
   11.3100    0.0919    3.9112 C   0  0  0  0  0  0  0  0  0  0  0  0
   10.4889    2.3210    4.1880 C   0  0  0  0  0  0  0  0  0  0  0  0
   10.2652    0.9290    3.9385 C   0  0  0  0  0  0  0  0  0  0  0  0
   11.1809   -1.3305    3.6663 C   0  0  0  0  0  0  0  0  0  0  0  0
    9.3539    3.0905    4.1969 O   0  0  0  0  0  0  0  0  0  0  0  0
   12.1563   -2.2348    3.8553 C   0  0  0  0  0  0  0  0  0  0  0  0
   11.9994   -3.6712    3.5867 C   0  0  0  0  0  0  0  0  0  0  0  0
   13.1395   -4.4337    3.2971 C   0  0  0  0  0  0  0  0  0  0  0  0
   10.7530   -4.3097    3.6636 C   0  0  0  0  0  0  0  0  0  0  0  0
   13.0236   -5.8042    3.0625 C   0  0  0  0  0  0  0  0  0  0  0  0
   10.6397   -5.6837    3.4294 C   0  0  0  0  0  0  0  0  0  0  0  0
   14.1306   -6.5513    2.7695 O   0  0  0  0  0  0  0  0  0  0  0  0
   11.7775   -6.4264    3.1265 C   0  0  0  0  0  0  0  0  0  0  0  0
   11.6849   -7.7696    2.8945 O   0  0  0  0  0  0  0  0  0  0  0  0
   11.8625    3.8021    4.5698 H   0  0  0  0  0  0  0  0  0  0  0  0
    9.3088    0.5746    3.7811 H   0  0  0  0  0  0  0  0  0  0  0  0
   10.2713   -1.6747    3.3209 H   0  0  0  0  0  0  0  0  0  0  0  0
    9.4141    4.0125    4.3527 H   0  0  0  0  0  0  0  0  0  0  0  0
   13.0670   -1.9022    4.2089 H   0  0  0  0  0  0  0  0  0  0  0  0
   14.0659   -3.9807    3.2574 H   0  0  0  0  0  0  0  0  0  0  0  0
    9.9110   -3.7599    3.8953 H   0  0  0  0  0  0  0  0  0  0  0  0
    9.7177   -6.1446    3.4808 H   0  0  0  0  0  0  0  0  0  0  0  0
   14.0391   -7.4567    2.5465 H   0  0  0  0  0  0  0  0  0  0  0  0
   10.9118   -8.2361    3.1450 H   0  0  0  0  0  0  0  0  0  0  0  0
  1  2  2  0  0  0  0
  2  3  1  0  0  0  0
  2  4  1  0  0  0  0
  3  5  1  0  0  0  0
  4  6  2  0  0  0  0
  4 19  1  0  0  0  0
  5  7  2  0  0  0  0
  5  8  1  0  0  0  0
  6  9  1  0  0  0  0
  6  7  1  0  0  0  0
  7 20  1  0  0  0  0
  8 10  2  0  0  0  0
  8 21  1  0  0  0  0
  9 22  1  0  0  0  0
 10 11  1  0  0  0  0
 10 23  1  0  0  0  0
 11 12  2  0  0  0  0
 11 13  1  0  0  0  0
 12 14  1  0  0  0  0
 12 24  1  0  0  0  0
 13 15  2  0  0  0  0
 13 25  1  0  0  0  0
 14 16  1  0  0  0  0
 14 17  2  0  0  0  0
 15 17  1  0  0  0  0
 15 26  1  0  0  0  0
 16 27  1  0  0  0  0
 17 18  1  0  0  0  0
 18 28  1  0  0  0  0
M  END
>  <Code-name>
204

>  <Compound>
Hispidin

>  <Specie>
Ionotus
hispidus

>  <Reference>
ZAIDMAN et al., 2005

>  <Organism>
N/A

>  <Smiles>
OC(C=C(/C=C/c(cc1)cc(O)c1O)O1)=CC1=O

>  <MMFF94 Energy>
12.622

>  <Total Molweight>
246.217

>  <Molweight>
246.217

>  <Monoisotopic Mass>
246.052825

>  <cLogP>
1.0298

>  <cLogS>
-2.374

>  <H-Acceptors>
5

>  <H-Donors>
3

>  <Total Surface Area>
182.48

>  <Relative PSA>
0.34163

>  <Polar Surface Area>
86.99

>  <Druglikeness>
-2.8331

>  <Mutagenic>
none

>  <Tumorigenic>
none

>  <Reproductive Effective>
none

>  <Irritant>
none

>  <Nasty Functions>


>  <Shape Index>
0.61111

>  <Molecular Flexibility>
0.28351

>  <Molecular Complexity>
0.66071

>  <Fragments>
1

>  <Non-H Atoms>
18

>  <Non-C/H Atoms>
5

>  <Metal-Atoms>
0

>  <Electronegative Atoms>
5

>  <Stereo Centers>
0

>  <Rotatable Bonds>
2

>  <Rings Closures>
2

>  <Small Rings>
2

>  <Aromatic Rings>
1

>  <Aromatic Atoms>
6

>  <sp3-Atoms>
4

>  <Symmetric atoms>
0

>  <Amides>
0

>  <Amines>
0

>  <Alkyl-Amines>
0

>  <Aromatic Amines>
0

>  <Aromatic Nitrogens>
0

>  <Basic Nitrogens>
0

>  <Acidic Oxygens>
0

>  <Stereo Configuration>


> <Gold.Version>
5.8.1

> <Gold.Id.Protein>
ID_2|Prot_COX2_5IKQ_Alig|mol2

> <Gold.Goldscore.Fitness>
52.7393

> <Gold.Goldscore.Internal.Vdw>
-3.0548

> <Gold.Goldscore.Internal.Torsion>
-1.7068

> <Gold.Goldscore.External.Vdw>
35.9658

> <Gold.Goldscore.Internal.HBond>
0.0000

> <Gold.Goldscore.External.HBond>
4.0172

> <Gold.Goldscore.Internal.Correction>
-4.0308

> <Gold.Goldscore.Hbonds>
donor molecule, donor type, donor heavy atom, donor atom, acceptor molecule, acceptor atom, score
      P1  H  5176  5185       L1     1  1.00
      P1  H  7785  7796       L1    16  0.24
      P1  H  7855  7866       L1    18  0.29

> <Gold.Goldscore.Internal.Vdw.Weighted>
-3.0548

> <Gold.Goldscore.Internal.Torsion.Weighted>
-1.7068

> <Gold.Goldscore.External.Vdw.Weighted>
49.4529

> <Gold.Goldscore.Internal.HBond.Weighted>
0.0000

> <Gold.Goldscore.External.HBond.Weighted>
4.0172

> <Gold.Goldscore.Internal.Correction.Weighted>
-4.0308

> <Gold.Protein.RotatedTorsions>
[ 5077 5068 5067 5065 ] final   17.06 input  179.94 | X-H torsion
[ 5157 5152 5151 5148 ] final -158.41 input -179.92 | X-H torsion
[ 5185 5176 5175 5173 ] final  155.36 input -179.99 | X-H torsion
[ 5712 5703 5702 5700 ] final  116.09 input  180.00 | X-H torsion
[ 8036 8031 8030 8027 ] final -121.54 input -179.94 | X-H torsion
[ 2749 2745 2743 2740 ] final  -68.40 input  -60.05 | X-H torsion
[ 1366 1361 1360 1357 ] final  -23.96 input  -60.09 | X-H torsion
[ 2556 2551 2550 2547 ] final -144.87 input   59.97 | X-H torsion

> <Gold.Protein.ActiveResidues>
 PRO86   VAL89   HIS90   LEU93   THR94   ILE112  MET113  TYR115  VAL116  LEU117 
 THR118  SER119  ARG120  SER121  LEU123  ILE124  GLN192  SER194  PHE198  PHE201 
 ALA202  GLN203  PHE205  THR206  PHE209  PHE210  VAL228  ILE341  ILE343  VAL344 
 ILE345  GLU346  ASP347  TYR348  VAL349  GLN350  HIS351  LEU352  SER353  GLY354 
 TYR355  PHE357  LEU359  LYS360  GLU380  PHE381  ASN382  THR383  LEU384  TYR385 
 HIS386  TRP387  LEU390  VAL434  LEU507  ARG513  ALA516  ILE517  PHE518  GLY519 
 GLU520  THR521  MET522  VAL523  GLU524  VAL525  GLY526  ALA527  PRO528  PHE529 
 SER530  LEU531  LYS532  GLY533  LEU534  MET535  COH609 

> <Gold.Protein.RotatedAtoms>
   17.6672    7.7497    2.6771 H   0  0  0  0  0  0  0  0  0  0  0  0  # atno 1366 bound_to 1361
    4.4880   -8.8676    7.0003 H   0  0  0  0  0  0  0  0  0  0  0  0  # atno 2556 bound_to 2551
   -3.4603   -0.2393    1.3635 H   0  0  0  0  0  0  0  0  0  0  0  0  # atno 2749 bound_to 2745
    0.7432   -2.3932    4.2739 H   0  0  0  0  0  0  0  0  0  0  0  0  # atno 5077 bound_to 5068
   12.1056   -1.3300    9.2432 H   0  0  0  0  0  0  0  0  0  0  0  0  # atno 5157 bound_to 5152
   15.3032    0.2279    4.9775 H   0  0  0  0  0  0  0  0  0  0  0  0  # atno 5185 bound_to 5176
    3.0441   -0.4664    2.4011 H   0  0  0  0  0  0  0  0  0  0  0  0  # atno 5712 bound_to 5703
    6.2446    4.3274    3.7089 H   0  0  0  0  0  0  0  0  0  0  0  0  # atno 8036 bound_to 8031
    2.1902   -2.6031    3.9227 LP  0  0  0  0  0  0  0  0  0  0  0  0  # atno 8267 bound_to 5068
    1.4042   -1.1997    3.6415 LP  0  0  0  0  0  0  0  0  0  0  0  0  # atno 8268 bound_to 5068
   12.9899   -2.5470    9.1978 LP  0  0  0  0  0  0  0  0  0  0  0  0  # atno 8279 bound_to 5152
   11.3652   -2.6371    9.3347 LP  0  0  0  0  0  0  0  0  0  0  0  0  # atno 8280 bound_to 5152
   15.5351   -1.1952    4.5537 LP  0  0  0  0  0  0  0  0  0  0  0  0  # atno 8281 bound_to 5176
   16.7451   -0.1949    5.0031 LP  0  0  0  0  0  0  0  0  0  0  0  0  # atno 8282 bound_to 5176
    1.7412   -1.0216    2.9039 LP  0  0  0  0  0  0  0  0  0  0  0  0  # atno 8283 bound_to 5703
    1.9768    0.5690    2.6191 LP  0  0  0  0  0  0  0  0  0  0  0  0  # atno 8284 bound_to 5703
    4.9135    3.7619    3.2986 LP  0  0  0  0  0  0  0  0  0  0  0  0  # atno 8309 bound_to 8031
    5.2061    5.3659    3.3879 LP  0  0  0  0  0  0  0  0  0  0  0  0  # atno 8310 bound_to 8031
   -2.8264   -0.4814    0.0207 LP  0  0  0  0  0  0  0  0  0  0  0  0  # atno 8323 bound_to 2745
   -4.2404    0.3151    0.2027 LP  0  0  0  0  0  0  0  0  0  0  0  0  # atno 8324 bound_to 2745
   18.7494    7.0029    3.4087 LP  0  0  0  0  0  0  0  0  0  0  0  0  # atno 8335 bound_to 1361
   18.3142    6.6542    1.8739 LP  0  0  0  0  0  0  0  0  0  0  0  0  # atno 8336 bound_to 1361
    5.1453  -10.2157    6.8782 LP  0  0  0  0  0  0  0  0  0  0  0  0  # atno 8342 bound_to 2551
    5.0161   -9.4182    8.2973 LP  0  0  0  0  0  0  0  0  0  0  0  0  # atno 8343 bound_to 2551

