
205|LMW3_p|sdf|205|dock169
  -GOLD-   61022 4353D 1   1.00000     0.00000

 62 63  0  0  0  0  0  0  0  0  1 V2000
   19.0906    2.2748    0.3432 O   0  0  0  0  0  0  0  0  0  0  0  0
   18.7021    2.4811    1.6398 C   0  0  0  0  0  0  0  0  0  0  0  0
   18.2632    3.7653    1.9841 C   0  0  0  0  0  0  0  0  0  0  0  0
   18.7331    1.4594    2.6017 C   0  0  0  0  0  0  0  0  0  0  0  0
   18.2385    4.7432    1.0269 O   0  0  0  0  0  0  0  0  0  0  0  0
   17.8609    4.0542    3.2855 C   0  0  0  0  0  0  0  0  0  0  0  0
   18.3317    1.7681    3.9138 C   0  0  0  0  0  0  0  0  0  0  0  0
   19.1914    0.0521    2.3014 C   0  0  0  0  0  0  0  0  0  0  0  0
   17.8984    3.0521    4.2521 C   0  0  0  0  0  0  0  0  0  0  0  0
   18.0319   -0.8408    1.8530 C   0  0  0  0  0  0  0  0  0  0  0  0
   16.9770   -0.9735    2.9528 C   0  0  0  0  0  0  0  0  0  0  0  0
   15.8643   -1.9411    2.5430 C   0  0  0  0  0  0  0  0  0  0  0  0
   14.6628   -1.8340    3.4845 C   0  0  0  0  0  0  0  0  0  0  0  0
   13.8878   -0.5217    3.3359 C   0  0  0  0  0  0  0  0  0  0  0  0
   12.4811   -0.5743    3.9358 C   0  0  0  0  0  0  0  0  0  0  0  0
   11.6128    0.5724    3.4128 C   0  0  0  0  0  0  0  0  0  0  0  0
   10.1996    0.5102    3.9948 C   0  0  0  0  0  0  0  0  0  0  0  0
    9.2302    1.3838    3.1971 C   0  0  0  0  0  0  0  0  0  0  0  0
    7.8590    1.4523    3.8717 C   0  0  0  0  0  0  0  0  0  0  0  0
    7.1650    0.0880    3.8568 C   0  0  0  0  0  0  0  0  0  0  0  0
    6.9721   -0.4287    2.4525 C   0  0  0  0  0  0  0  0  0  0  0  0
    5.9666    0.0291    1.5942 C   0  0  0  0  0  0  0  0  0  0  0  0
    7.8301   -1.4393    1.9792 C   0  0  0  0  0  0  0  0  0  0  0  0
    5.0567    0.9953    1.9365 O   0  0  0  0  0  0  0  0  0  0  0  0
    5.8388   -0.4975    0.3060 C   0  0  0  0  0  0  0  0  0  0  0  0
    7.6927   -1.9617    0.6878 C   0  0  0  0  0  0  0  0  0  0  0  0
    4.8531   -0.0352   -0.5209 O   0  0  0  0  0  0  0  0  0  0  0  0
    6.6921   -1.4871   -0.1556 C   0  0  0  0  0  0  0  0  0  0  0  0
   18.4684    1.9755   -0.2903 H   0  0  0  0  0  0  0  0  0  0  0  0
   17.9251    4.5480    0.1657 H   0  0  0  0  0  0  0  0  0  0  0  0
   17.5376    5.0027    3.5317 H   0  0  0  0  0  0  0  0  0  0  0  0
   18.3578    1.0338    4.6386 H   0  0  0  0  0  0  0  0  0  0  0  0
   19.6284   -0.3653    3.1844 H   0  0  0  0  0  0  0  0  0  0  0  0
   19.9033    0.0976    1.5039 H   0  0  0  0  0  0  0  0  0  0  0  0
   17.6057    3.2587    5.2200 H   0  0  0  0  0  0  0  0  0  0  0  0
   18.4117   -1.8125    1.6149 H   0  0  0  0  0  0  0  0  0  0  0  0
   17.5728   -0.3942    0.9959 H   0  0  0  0  0  0  0  0  0  0  0  0
   16.5495   -0.0114    3.1434 H   0  0  0  0  0  0  0  0  0  0  0  0
   17.4519   -1.3578    3.8312 H   0  0  0  0  0  0  0  0  0  0  0  0
   16.2430   -2.9413    2.5729 H   0  0  0  0  0  0  0  0  0  0  0  0
   15.5431   -1.6885    1.5541 H   0  0  0  0  0  0  0  0  0  0  0  0
   15.0142   -1.9079    4.4924 H   0  0  0  0  0  0  0  0  0  0  0  0
   13.9913   -2.6276    3.2309 H   0  0  0  0  0  0  0  0  0  0  0  0
   13.8036   -0.2938    2.2938 H   0  0  0  0  0  0  0  0  0  0  0  0
   14.4314    0.2282    3.8716 H   0  0  0  0  0  0  0  0  0  0  0  0
   12.5529   -0.5000    5.0007 H   0  0  0  0  0  0  0  0  0  0  0  0
   12.0262   -1.5003    3.6518 H   0  0  0  0  0  0  0  0  0  0  0  0
   11.5537    0.5065    2.3465 H   0  0  0  0  0  0  0  0  0  0  0  0
   12.0601    1.4976    3.7109 H   0  0  0  0  0  0  0  0  0  0  0  0
   10.2247    0.8533    5.0080 H   0  0  0  0  0  0  0  0  0  0  0  0
    9.8590   -0.5029    3.9462 H   0  0  0  0  0  0  0  0  0  0  0  0
    9.1159    0.9715    2.2164 H   0  0  0  0  0  0  0  0  0  0  0  0
    9.6315    2.3745    3.1471 H   0  0  0  0  0  0  0  0  0  0  0  0
    7.2487    2.1598    3.3504 H   0  0  0  0  0  0  0  0  0  0  0  0
    7.9973    1.7505    4.8899 H   0  0  0  0  0  0  0  0  0  0  0  0
    6.2077    0.1816    4.3257 H   0  0  0  0  0  0  0  0  0  0  0  0
    7.7859   -0.6061    4.3837 H   0  0  0  0  0  0  0  0  0  0  0  0
    8.5742   -1.8017    2.5956 H   0  0  0  0  0  0  0  0  0  0  0  0
    4.9916    1.2836    2.8256 H   0  0  0  0  0  0  0  0  0  0  0  0
    8.3347   -2.7004    0.3603 H   0  0  0  0  0  0  0  0  0  0  0  0
    4.5159   -0.5847   -1.2009 H   0  0  0  0  0  0  0  0  0  0  0  0
    6.5874   -1.8662   -1.1097 H   0  0  0  0  0  0  0  0  0  0  0  0
  1  2  1  0  0  0  0
  1 29  1  0  0  0  0
  2  3  2  0  0  0  0
  2  4  1  0  0  0  0
  3  5  1  0  0  0  0
  3  6  1  0  0  0  0
  4  7  2  0  0  0  0
  4  8  1  0  0  0  0
  5 30  1  0  0  0  0
  6  9  2  0  0  0  0
  6 31  1  0  0  0  0
  7  9  1  0  0  0  0
  7 32  1  0  0  0  0
  8 10  1  0  0  0  0
  8 33  1  0  0  0  0
  8 34  1  0  0  0  0
  9 35  1  0  0  0  0
 10 11  1  0  0  0  0
 10 36  1  0  0  0  0
 10 37  1  0  0  0  0
 11 12  1  0  0  0  0
 11 38  1  0  0  0  0
 11 39  1  0  0  0  0
 12 13  1  0  0  0  0
 12 40  1  0  0  0  0
 12 41  1  0  0  0  0
 13 14  1  0  0  0  0
 13 42  1  0  0  0  0
 13 43  1  0  0  0  0
 14 15  1  0  0  0  0
 14 44  1  0  0  0  0
 14 45  1  0  0  0  0
 15 16  1  0  0  0  0
 15 46  1  0  0  0  0
 15 47  1  0  0  0  0
 16 17  1  0  0  0  0
 16 48  1  0  0  0  0
 16 49  1  0  0  0  0
 17 18  1  0  0  0  0
 17 50  1  0  0  0  0
 17 51  1  0  0  0  0
 18 19  1  0  0  0  0
 18 52  1  0  0  0  0
 18 53  1  0  0  0  0
 19 20  1  0  0  0  0
 19 54  1  0  0  0  0
 19 55  1  0  0  0  0
 20 21  1  0  0  0  0
 20 56  1  0  0  0  0
 20 57  1  0  0  0  0
 21 22  2  0  0  0  0
 21 23  1  0  0  0  0
 22 24  1  0  0  0  0
 22 25  1  0  0  0  0
 23 26  2  0  0  0  0
 23 58  1  0  0  0  0
 24 59  1  0  0  0  0
 25 27  1  0  0  0  0
 25 28  2  0  0  0  0
 26 28  1  0  0  0  0
 26 60  1  0  0  0  0
 27 61  1  0  0  0  0
 28 62  1  0  0  0  0
M  END
>  <Code-name>
205

>  <Compound>
Gerronemins A

>  <Specie>
Genorrema

>  <Reference>
ZAIDMAN et al.,
2005; KAWAGISHI et al., 2002

>  <Organism>
COX-2

>  <Smiles>
Oc1cccc(CCCCCCCCCCCCc2cccc(O)c2O)c1O

>  <MMFF94 Energy>
29.429

>  <Total Molweight>
386.530

>  <Molweight>
386.530

>  <Monoisotopic Mass>
386.245710

>  <cLogP>
7.0222

>  <cLogS>
-4.77

>  <H-Acceptors>
4

>  <H-Donors>
4

>  <Total Surface Area>
323.54

>  <Relative PSA>
0.16196

>  <Polar Surface Area>
80.92

>  <Druglikeness>
-7.4967

>  <Mutagenic>
none

>  <Tumorigenic>
none

>  <Reproductive Effective>
none

>  <Irritant>
none

>  <Nasty Functions>


>  <Shape Index>
0.71429

>  <Molecular Flexibility>
0.48265

>  <Molecular Complexity>
0.68861

>  <Fragments>
1

>  <Non-H Atoms>
28

>  <Non-C/H Atoms>
4

>  <Metal-Atoms>
0

>  <Electronegative Atoms>
4

>  <Stereo Centers>
0

>  <Rotatable Bonds>
13

>  <Rings Closures>
2

>  <Small Rings>
2

>  <Aromatic Rings>
2

>  <Aromatic Atoms>
12

>  <sp3-Atoms>
16

>  <Symmetric atoms>
14

>  <Amides>
0

>  <Amines>
0

>  <Alkyl-Amines>
0

>  <Aromatic Amines>
0

>  <Aromatic Nitrogens>
0

>  <Basic Nitrogens>
0

>  <Acidic Oxygens>
0

>  <Stereo Configuration>


> <Gold.Version>
5.8.1

> <Gold.Id.Protein>
ID_2|Prot_COX2_5IKQ_Alig|mol2

> <Gold.Goldscore.Fitness>
69.5601

> <Gold.Goldscore.Internal.Vdw>
-13.0183

> <Gold.Goldscore.Internal.Torsion>
-7.1993

> <Gold.Goldscore.External.Vdw>
50.0312

> <Gold.Goldscore.Internal.HBond>
0.0000

> <Gold.Goldscore.External.HBond>
8.6103

> <Gold.Goldscore.Internal.Correction>
-12.3745

> <Gold.Goldscore.Hbonds>
donor molecule, donor type, donor heavy atom, donor atom, acceptor molecule, acceptor atom, score
      P1  H  5703  5712       L1    24  0.92
      P1  H  1361  1366       L1     5  1.00
      L1  H     1    29       P1  7951  0.79

> <Gold.Goldscore.Internal.Vdw.Weighted>
-13.0183

> <Gold.Goldscore.Internal.Torsion.Weighted>
-7.1993

> <Gold.Goldscore.External.Vdw.Weighted>
68.7929

> <Gold.Goldscore.Internal.HBond.Weighted>
0.0000

> <Gold.Goldscore.External.HBond.Weighted>
8.6103

> <Gold.Goldscore.Internal.Correction.Weighted>
-12.3745

> <Gold.Protein.RotatedTorsions>
[ 5077 5068 5067 5065 ] final   22.76 input  179.94 | X-H torsion
[ 5157 5152 5151 5148 ] final  -42.29 input -179.92 | X-H torsion
[ 5185 5176 5175 5173 ] final -144.94 input -179.99 | X-H torsion
[ 5712 5703 5702 5700 ] final  152.09 input  180.00 | X-H torsion
[ 8036 8031 8030 8027 ] final -129.55 input -179.94 | X-H torsion
[ 2749 2745 2743 2740 ] final  107.60 input  -60.05 | X-H torsion
[ 1366 1361 1360 1357 ] final  110.09 input  -60.09 | X-H torsion
[ 2556 2551 2550 2547 ] final  -89.19 input   59.97 | X-H torsion

> <Gold.Protein.ActiveResidues>
 PRO86   VAL89   HIS90   LEU93   THR94   ILE112  MET113  TYR115  VAL116  LEU117 
 THR118  SER119  ARG120  SER121  LEU123  ILE124  GLN192  SER194  PHE198  PHE201 
 ALA202  GLN203  PHE205  THR206  PHE209  PHE210  VAL228  ILE341  ILE343  VAL344 
 ILE345  GLU346  ASP347  TYR348  VAL349  GLN350  HIS351  LEU352  SER353  GLY354 
 TYR355  PHE357  LEU359  LYS360  GLU380  PHE381  ASN382  THR383  LEU384  TYR385 
 HIS386  TRP387  LEU390  VAL434  LEU507  ARG513  ALA516  ILE517  PHE518  GLY519 
 GLU520  THR521  MET522  VAL523  GLU524  VAL525  GLY526  ALA527  PRO528  PHE529 
 SER530  LEU531  LYS532  GLY533  LEU534  MET535  COH609 

> <Gold.Protein.RotatedAtoms>
   18.4642    6.6835    2.0890 H   0  0  0  0  0  0  0  0  0  0  0  0  # atno 1366 bound_to 1361
    4.5872   -8.8130    7.7298 H   0  0  0  0  0  0  0  0  0  0  0  0  # atno 2556 bound_to 2551
   -3.5723    0.0290   -0.1883 H   0  0  0  0  0  0  0  0  0  0  0  0  # atno 2749 bound_to 2745
    0.7088   -2.3243    4.2590 H   0  0  0  0  0  0  0  0  0  0  0  0  # atno 5077 bound_to 5068
   11.4608   -2.5062    9.2838 H   0  0  0  0  0  0  0  0  0  0  0  0  # atno 5157 bound_to 5152
   16.0646    0.3552    5.1160 H   0  0  0  0  0  0  0  0  0  0  0  0  # atno 5185 bound_to 5176
    2.9680    0.0128    2.3583 H   0  0  0  0  0  0  0  0  0  0  0  0  # atno 5712 bound_to 5703
    6.2178    4.2210    3.7004 H   0  0  0  0  0  0  0  0  0  0  0  0  # atno 8036 bound_to 8031
    2.1405   -2.6735    3.9598 LP  0  0  0  0  0  0  0  0  0  0  0  0  # atno 8267 bound_to 5068
    1.4952   -1.2119    3.6222 LP  0  0  0  0  0  0  0  0  0  0  0  0  # atno 8268 bound_to 5068
   12.1659   -1.1766    9.2843 LP  0  0  0  0  0  0  0  0  0  0  0  0  # atno 8279 bound_to 5152
   12.9605   -2.6007    9.1997 LP  0  0  0  0  0  0  0  0  0  0  0  0  # atno 8280 bound_to 5152
   14.9129   -0.5011    4.6699 LP  0  0  0  0  0  0  0  0  0  0  0  0  # atno 8281 bound_to 5176
   16.4530   -1.0418    4.7206 LP  0  0  0  0  0  0  0  0  0  0  0  0  # atno 8282 bound_to 5176
    2.2651   -1.2465    2.7814 LP  0  0  0  0  0  0  0  0  0  0  0  0  # atno 8283 bound_to 5703
    1.5442    0.2187    2.7931 LP  0  0  0  0  0  0  0  0  0  0  0  0  # atno 8284 bound_to 5703
    4.8255    3.8548    3.2674 LP  0  0  0  0  0  0  0  0  0  0  0  0  # atno 8309 bound_to 8031
    5.3263    5.4007    3.4292 LP  0  0  0  0  0  0  0  0  0  0  0  0  # atno 8310 bound_to 8031
   -4.1692    0.1447    1.1879 LP  0  0  0  0  0  0  0  0  0  0  0  0  # atno 8323 bound_to 2745
   -2.7634   -0.6324    0.8940 LP  0  0  0  0  0  0  0  0  0  0  0  0  # atno 8324 bound_to 2745
   17.4884    7.7588    2.4832 LP  0  0  0  0  0  0  0  0  0  0  0  0  # atno 8335 bound_to 1361
   18.6217    7.1736    3.5029 LP  0  0  0  0  0  0  0  0  0  0  0  0  # atno 8336 bound_to 1361
    4.7627   -9.5576    6.4340 LP  0  0  0  0  0  0  0  0  0  0  0  0  # atno 8342 bound_to 2551
    5.2800  -10.1415    7.8686 LP  0  0  0  0  0  0  0  0  0  0  0  0  # atno 8343 bound_to 2551

