
020|LMW3_p|sdf|20|dock3
  -GOLD-   6 722 3593D 1   1.00000     0.00000

 77 81  0  0  0  0  0  0  0  0  1 V2000
    6.2274    0.2256    2.0706 O   0  0  0  0  0  0  0  0  0  0  0  0
    7.1898    0.0804    1.0113 C   0  0  1  0  0  0  0  0  0  0  0  0
    6.9260    1.4197    1.6590 C   0  0  2  0  0  0  0  0  0  0  0  0
    8.4562   -0.6905    1.3903 C   0  0  1  0  0  0  0  0  0  0  0  0
    6.5409   -0.2256   -0.3193 C   0  0  0  0  0  0  0  0  0  0  0  0
    7.8272    1.9908    2.7132 C   0  0  1  0  0  0  0  0  0  0  0  0
    8.8975   -0.3426    2.8731 C   0  0  2  0  0  0  0  0  0  0  0  0
    8.1770   -2.2204    1.2637 C   0  0  0  0  0  0  0  0  0  0  0  0
    9.5760   -0.2734    0.3967 C   0  0  0  0  0  0  0  0  0  0  0  0
    6.5975   -1.7148   -0.6789 C   0  0  2  0  0  0  0  0  0  0  0  0
    7.0525    2.1794    3.8962 O   0  0  0  0  0  0  0  0  0  0  0  0
    9.0436    1.1638    3.0858 C   0  0  0  0  0  0  0  0  0  0  0  0
   10.1165   -1.1648    3.3597 C   0  0  0  0  0  0  0  0  0  0  0  0
    6.8779   -2.5917    0.5335 C   0  0  0  0  0  0  0  0  0  0  0  0
    7.6116   -1.9576   -1.6542 O   0  0  0  0  0  0  0  0  0  0  0  0
   10.1577    1.7140    3.6181 C   0  0  0  0  0  0  0  0  0  0  0  0
   10.8718   -0.4940    4.5084 C   0  0  0  0  0  0  0  0  0  0  0  0
   11.3534    0.9216    4.1301 C   0  0  2  0  0  0  0  0  0  0  0  0
   10.2963    3.1646    3.9918 C   0  0  0  0  0  0  0  0  0  0  0  0
   11.7829    1.7780    5.3655 C   0  0  2  0  0  0  0  0  0  0  0  0
   12.4381    0.8774    3.0357 C   0  0  0  0  0  0  0  0  0  0  0  0
   11.5308    3.2219    4.8803 C   0  0  0  0  0  0  0  0  0  0  0  0
   13.2290    1.6063    5.9376 C   0  0  1  0  0  0  0  0  0  0  0  0
   14.2698    2.2699    4.9911 C   0  0  0  0  0  0  0  0  0  0  0  0
   13.3603    2.1676    7.3569 C   0  0  0  0  0  0  0  0  0  0  0  0
   15.6563    2.4883    5.6210 C   0  0  0  0  0  0  0  0  0  0  0  0
   16.7653    2.7724    4.5794 C   0  0  1  0  0  0  0  0  0  0  0  0
   17.7377    3.9112    5.0102 C   0  0  0  0  0  0  0  0  0  0  0  0
   17.5547    1.4993    4.2393 C   0  0  0  0  0  0  0  0  0  0  0  0
   18.5079    4.5418    3.8468 C   0  0  0  0  0  0  0  0  0  0  0  0
   18.7217    3.4481    6.0904 C   0  0  0  0  0  0  0  0  0  0  0  0
    6.7145    2.3869    1.2532 H   0  0  0  0  0  0  0  0  0  0  0  0
    7.0460    0.3297   -1.0818 H   0  0  0  0  0  0  0  0  0  0  0  0
    5.5094    0.0493   -0.2456 H   0  0  0  0  0  0  0  0  0  0  0  0
    8.2164    2.8933    2.2901 H   0  0  0  0  0  0  0  0  0  0  0  0
    8.0971   -0.6544    3.5111 H   0  0  0  0  0  0  0  0  0  0  0  0
    8.1305   -2.6308    2.2507 H   0  0  0  0  0  0  0  0  0  0  0  0
    8.9739   -2.6188    0.6712 H   0  0  0  0  0  0  0  0  0  0  0  0
    9.2058   -0.3371   -0.6051 H   0  0  0  0  0  0  0  0  0  0  0  0
   10.4147   -0.9283    0.5092 H   0  0  0  0  0  0  0  0  0  0  0  0
    9.8786    0.7322    0.6019 H   0  0  0  0  0  0  0  0  0  0  0  0
    5.6341   -1.9679   -1.0696 H   0  0  0  0  0  0  0  0  0  0  0  0
    6.4376    2.9182    3.7657 H   0  0  0  0  0  0  0  0  0  0  0  0
   10.7901   -1.2939    2.5385 H   0  0  0  0  0  0  0  0  0  0  0  0
    9.7459   -2.1000    3.7244 H   0  0  0  0  0  0  0  0  0  0  0  0
    6.0627   -2.4937    1.2195 H   0  0  0  0  0  0  0  0  0  0  0  0
    6.9885   -3.5956    0.1801 H   0  0  0  0  0  0  0  0  0  0  0  0
    7.3598   -1.5408   -2.4932 H   0  0  0  0  0  0  0  0  0  0  0  0
   11.7220   -1.0930    4.7599 H   0  0  0  0  0  0  0  0  0  0  0  0
   10.2029   -0.4061    5.3389 H   0  0  0  0  0  0  0  0  0  0  0  0
    9.4319    3.5004    4.5256 H   0  0  0  0  0  0  0  0  0  0  0  0
   10.3879    3.7957    3.1325 H   0  0  0  0  0  0  0  0  0  0  0  0
   11.2216    1.4577    6.2183 H   0  0  0  0  0  0  0  0  0  0  0  0
   12.8424    1.8580    2.8945 H   0  0  0  0  0  0  0  0  0  0  0  0
   12.0060    0.5345    2.1189 H   0  0  0  0  0  0  0  0  0  0  0  0
   13.2188    0.2093    3.3340 H   0  0  0  0  0  0  0  0  0  0  0  0
   11.3567    3.8682    5.7152 H   0  0  0  0  0  0  0  0  0  0  0  0
   12.3756    3.6064    4.3480 H   0  0  0  0  0  0  0  0  0  0  0  0
   13.4261    0.5561    5.9929 H   0  0  0  0  0  0  0  0  0  0  0  0
   13.8867    3.2219    4.6880 H   0  0  0  0  0  0  0  0  0  0  0  0
   14.4102    1.5956    4.1723 H   0  0  0  0  0  0  0  0  0  0  0  0
   14.3564    2.0068    7.7133 H   0  0  0  0  0  0  0  0  0  0  0  0
   12.6661    1.6712    8.0024 H   0  0  0  0  0  0  0  0  0  0  0  0
   13.1502    3.2167    7.3464 H   0  0  0  0  0  0  0  0  0  0  0  0
   15.9225    1.6087    6.1690 H   0  0  0  0  0  0  0  0  0  0  0  0
   15.5855    3.3503    6.2509 H   0  0  0  0  0  0  0  0  0  0  0  0
   16.2569    3.1118    3.7011 H   0  0  0  0  0  0  0  0  0  0  0  0
   17.1012    4.6700    5.4153 H   0  0  0  0  0  0  0  0  0  0  0  0
   18.0170    1.1187    5.1261 H   0  0  0  0  0  0  0  0  0  0  0  0
   18.3079    1.7295    3.5150 H   0  0  0  0  0  0  0  0  0  0  0  0
   16.8891    0.7628    3.8400 H   0  0  0  0  0  0  0  0  0  0  0  0
   19.1771    3.8192    3.4287 H   0  0  0  0  0  0  0  0  0  0  0  0
   19.0670    5.3818    4.2029 H   0  0  0  0  0  0  0  0  0  0  0  0
   17.8177    4.8652    3.0958 H   0  0  0  0  0  0  0  0  0  0  0  0
   19.4590    2.8092    5.6510 H   0  0  0  0  0  0  0  0  0  0  0  0
   18.1917    2.9117    6.8494 H   0  0  0  0  0  0  0  0  0  0  0  0
   19.2014    4.3002    6.5248 H   0  0  0  0  0  0  0  0  0  0  0  0
  1  3  1  0  0  0  0
  2  1  1  0  0  0  0
  2  4  1  0  0  0  0
  2  5  1  0  0  0  0
  2  3  1  0  0  0  0
  3  6  1  0  0  0  0
  3 32  1  0  0  0  0
  4  7  1  0  0  0  0
  4  8  1  0  0  0  0
  4  9  1  0  0  0  0
  5 10  1  0  0  0  0
  5 33  1  0  0  0  0
  5 34  1  0  0  0  0
  6 11  1  0  0  0  0
  6 12  1  0  0  0  0
  6 35  1  0  0  0  0
  7 13  1  0  0  0  0
  7 12  1  0  0  0  0
  7 36  1  0  0  0  0
  8 14  1  0  0  0  0
  8 37  1  0  0  0  0
  8 38  1  0  0  0  0
  9 39  1  0  0  0  0
  9 40  1  0  0  0  0
  9 41  1  0  0  0  0
 10 15  1  0  0  0  0
 10 14  1  0  0  0  0
 10 42  1  0  0  0  0
 11 43  1  0  0  0  0
 12 16  2  0  0  0  0
 13 17  1  0  0  0  0
 13 44  1  0  0  0  0
 13 45  1  0  0  0  0
 14 46  1  0  0  0  0
 14 47  1  0  0  0  0
 15 48  1  0  0  0  0
 16 18  1  0  0  0  0
 16 19  1  0  0  0  0
 17 18  1  0  0  0  0
 17 49  1  0  0  0  0
 17 50  1  0  0  0  0
 18 20  1  0  0  0  0
 18 21  1  0  0  0  0
 19 22  1  0  0  0  0
 19 51  1  0  0  0  0
 19 52  1  0  0  0  0
 20 23  1  0  0  0  0
 20 22  1  0  0  0  0
 20 53  1  0  0  0  0
 21 54  1  0  0  0  0
 21 55  1  0  0  0  0
 21 56  1  0  0  0  0
 22 57  1  0  0  0  0
 22 58  1  0  0  0  0
 23 24  1  0  0  0  0
 23 25  1  0  0  0  0
 23 59  1  0  0  0  0
 24 26  1  0  0  0  0
 24 60  1  0  0  0  0
 24 61  1  0  0  0  0
 25 62  1  0  0  0  0
 25 63  1  0  0  0  0
 25 64  1  0  0  0  0
 26 27  1  0  0  0  0
 26 65  1  0  0  0  0
 26 66  1  0  0  0  0
 27 28  1  0  0  0  0
 27 29  1  0  0  0  0
 27 67  1  0  0  0  0
 28 30  1  0  0  0  0
 28 31  1  0  0  0  0
 28 68  1  0  0  0  0
 29 69  1  0  0  0  0
 29 70  1  0  0  0  0
 29 71  1  0  0  0  0
 30 72  1  0  0  0  0
 30 73  1  0  0  0  0
 30 74  1  0  0  0  0
 31 75  1  0  0  0  0
 31 76  1  0  0  0  0
 31 77  1  0  0  0  0
M  END
>  <Code-name>
020

>  <Compound>
5α,6α-epoxyergosta-8(14)-ene-3β,7α-diol

>  <Specie>
Pleurotus eryngii

>  <Reference>
KIKUCHI et al., 2017

>  <Organism>
Aromatase Inhibitor

>  <Smiles>
CC(C)[C@@H](C)CC[C@@H](C)[C@@H](CC1)[C@@](C)(CC[C@@H]2[C@@](C)(CC[C@@H](C3)O)[C@]33O[C@@H]33)C1=C2[C@@H]3O

>  <MMFF94 Energy>
98.91

>  <Total Molweight>
430.670

>  <Molweight>
430.670

>  <Monoisotopic Mass>
430.344695

>  <cLogP>
5.5985

>  <cLogS>
-5.596

>  <H-Acceptors>
3

>  <H-Donors>
2

>  <Total Surface Area>
327.9

>  <Relative PSA>
0.13373

>  <Polar Surface Area>
52.99

>  <Druglikeness>
-7.7916

>  <Mutagenic>
high

>  <Tumorigenic>
none

>  <Reproductive Effective>
none

>  <Irritant>
none

>  <Nasty Functions>
oxiran/aziridine

>  <Shape Index>
0.51613

>  <Molecular Flexibility>
0.32587

>  <Molecular Complexity>
1.0241

>  <Fragments>
1

>  <Non-H Atoms>
31

>  <Non-C/H Atoms>
3

>  <Metal-Atoms>
0

>  <Electronegative Atoms>
3

>  <Stereo Centers>
10

>  <Rotatable Bonds>
5

>  <Rings Closures>
5

>  <Small Rings>
6

>  <Aromatic Rings>
0

>  <Aromatic Atoms>
0

>  <sp3-Atoms>
29

>  <Symmetric atoms>
1

>  <Amides>
0

>  <Amines>
0

>  <Alkyl-Amines>
0

>  <Aromatic Amines>
0

>  <Aromatic Nitrogens>
0

>  <Basic Nitrogens>
0

>  <Acidic Oxygens>
0

>  <Stereo Configuration>
this enantiomer

> <Gold.Version>
5.8.1

> <Gold.Id.Protein>
ID_2|Prot_COX2_5IKQ_Alig|mol2

> <Gold.Goldscore.Fitness>
2.7315

> <Gold.Goldscore.Internal.Vdw>
-49.0506

> <Gold.Goldscore.Internal.Torsion>
-6.0472

> <Gold.Goldscore.External.Vdw>
25.0900

> <Gold.Goldscore.Internal.HBond>
0.0000

> <Gold.Goldscore.External.HBond>
2.4915

> <Gold.Goldscore.Internal.Correction>
-20.8390

> <Gold.Goldscore.Hbonds>
donor molecule, donor type, donor heavy atom, donor atom, acceptor molecule, acceptor atom, score
      P1  H  5703  5712       L1     1  0.27
      L1  H    11    43       P1  8031  0.98

> <Gold.Goldscore.Internal.Vdw.Weighted>
-49.0506

> <Gold.Goldscore.Internal.Torsion.Weighted>
-6.0472

> <Gold.Goldscore.External.Vdw.Weighted>
34.4987

> <Gold.Goldscore.Internal.HBond.Weighted>
0.0000

> <Gold.Goldscore.External.HBond.Weighted>
2.4915

> <Gold.Goldscore.Internal.Correction.Weighted>
-20.8390

> <Gold.Protein.RotatedTorsions>
[ 5077 5068 5067 5065 ] final  166.31 input  179.94 | X-H torsion
[ 5157 5152 5151 5148 ] final  159.07 input -179.92 | X-H torsion
[ 5185 5176 5175 5173 ] final   41.61 input -179.99 | X-H torsion
[ 5712 5703 5702 5700 ] final  134.26 input  180.00 | X-H torsion
[ 8036 8031 8030 8027 ] final  -55.41 input -179.94 | X-H torsion
[ 2749 2745 2743 2740 ] final  166.09 input  -60.05 | X-H torsion
[ 1366 1361 1360 1357 ] final  -72.11 input  -60.09 | X-H torsion
[ 2556 2551 2550 2547 ] final  -15.59 input   59.97 | X-H torsion

> <Gold.Protein.ActiveResidues>
 PRO86   VAL89   HIS90   LEU93   THR94   ILE112  MET113  TYR115  VAL116  LEU117 
 THR118  SER119  ARG120  SER121  LEU123  ILE124  GLN192  SER194  PHE198  PHE201 
 ALA202  GLN203  PHE205  THR206  PHE209  PHE210  VAL228  ILE341  ILE343  VAL344 
 ILE345  GLU346  ASP347  TYR348  VAL349  GLN350  HIS351  LEU352  SER353  GLY354 
 TYR355  PHE357  LEU359  LYS360  GLU380  PHE381  ASN382  THR383  LEU384  TYR385 
 HIS386  TRP387  LEU390  VAL434  LEU507  ARG513  ALA516  ILE517  PHE518  GLY519 
 GLU520  THR521  MET522  VAL523  GLU524  VAL525  GLY526  ALA527  PRO528  PHE529 
 SER530  LEU531  LYS532  GLY533  LEU534  MET535  COH609 

> <Gold.Protein.RotatedAtoms>
   18.0103    7.6899    3.2198 H   0  0  0  0  0  0  0  0  0  0  0  0  # atno 1366 bound_to 1361
    5.0044   -9.5579    8.1392 H   0  0  0  0  0  0  0  0  0  0  0  0  # atno 2556 bound_to 2551
   -2.9545   -0.3618    0.0590 H   0  0  0  0  0  0  0  0  0  0  0  0  # atno 2749 bound_to 2745
    1.7875   -1.4574    3.6816 H   0  0  0  0  0  0  0  0  0  0  0  0  # atno 5077 bound_to 5068
   12.6485   -1.5081    9.1950 H   0  0  0  0  0  0  0  0  0  0  0  0  # atno 5157 bound_to 5152
   15.4974   -1.0333    4.6410 H   0  0  0  0  0  0  0  0  0  0  0  0  # atno 5185 bound_to 5176
    3.0422   -0.2197    2.3681 H   0  0  0  0  0  0  0  0  0  0  0  0  # atno 5712 bound_to 5703
    5.9382    5.1236    3.5968 H   0  0  0  0  0  0  0  0  0  0  0  0  # atno 8036 bound_to 8031
    0.4819   -2.0261    4.1646 LP  0  0  0  0  0  0  0  0  0  0  0  0  # atno 8267 bound_to 5068
    1.8620   -2.8973    4.1089 LP  0  0  0  0  0  0  0  0  0  0  0  0  # atno 8268 bound_to 5068
   12.4815   -3.0033    9.2355 LP  0  0  0  0  0  0  0  0  0  0  0  0  # atno 8279 bound_to 5152
   11.2244   -1.9678    9.3547 LP  0  0  0  0  0  0  0  0  0  0  0  0  # atno 8280 bound_to 5152
   16.7598   -0.2906    4.9775 LP  0  0  0  0  0  0  0  0  0  0  0  0  # atno 8281 bound_to 5176
   15.2871    0.4149    4.9833 LP  0  0  0  0  0  0  0  0  0  0  0  0  # atno 8282 bound_to 5176
    1.9900   -1.1773    2.8524 LP  0  0  0  0  0  0  0  0  0  0  0  0  # atno 8283 bound_to 5703
    1.7302    0.4286    2.7102 LP  0  0  0  0  0  0  0  0  0  0  0  0  # atno 8284 bound_to 5703
    5.8772    3.6220    3.6333 LP  0  0  0  0  0  0  0  0  0  0  0  0  # atno 8309 bound_to 8031
    4.6100    4.5506    3.1876 LP  0  0  0  0  0  0  0  0  0  0  0  0  # atno 8310 bound_to 8031
   -4.2740    0.3232    0.2895 LP  0  0  0  0  0  0  0  0  0  0  0  0  # atno 8323 bound_to 2745
   -3.3985   -0.3428    1.4963 LP  0  0  0  0  0  0  0  0  0  0  0  0  # atno 8324 bound_to 2745
   18.9022    6.5517    2.8040 LP  0  0  0  0  0  0  0  0  0  0  0  0  # atno 8335 bound_to 1361
   17.7508    7.1769    1.8293 LP  0  0  0  0  0  0  0  0  0  0  0  0  # atno 8336 bound_to 1361
    4.4543   -8.6672    7.0583 LP  0  0  0  0  0  0  0  0  0  0  0  0  # atno 8342 bound_to 2551
    5.0893  -10.1407    6.7545 LP  0  0  0  0  0  0  0  0  0  0  0  0  # atno 8343 bound_to 2551

