
N03|LMW3_p|sdf|214|dock2
  -GOLD-   61122 5213D 1   1.00000     0.00000

 41 43  0  0  0  0  0  0  0  0  2 V2000
   14.3792    3.0748    4.8959 O   0  0  0  0  0  0  0  0  0  0  0  0
   13.7350    2.2336    4.2901 C   0  0  0  0  0  0  0  0  0  0  0  0
   14.3091    1.0801    3.8997 O   0  5  0  0  0  0  0  0  0  0  0  0
   12.2835    2.3264    3.9286 C   0  0  0  0  0  0  0  0  0  0  0  0
   11.3698    1.6178    4.9437 C   0  0  1  0  0  0  0  0  0  0  0  0
   10.0288    2.1743    4.9009 O   0  0  0  0  0  0  0  0  0  0  0  0
   11.2653    0.1543    4.5781 C   0  0  0  0  0  0  0  0  0  0  0  0
   11.8811    1.7947    6.3955 C   0  0  0  0  0  0  0  0  0  0  0  0
    9.2169    1.7716    3.7823 C   0  0  0  0  0  0  0  0  0  0  0  0
   12.2643   -0.7758    4.6846 N   0  0  0  0  0  0  0  0  0  0  0  0
   10.1584   -0.4797    4.0553 C   0  0  0  0  0  0  0  0  0  0  0  0
   11.8180    3.2298    6.9186 C   0  0  0  0  0  0  0  0  0  0  0  0
    8.8960    0.2696    3.8333 C   0  0  0  0  0  0  0  0  0  0  0  0
   11.8222   -2.0057    4.2362 C   0  0  0  0  0  0  0  0  0  0  0  0
   10.4915   -1.8418    3.8383 C   0  0  0  0  0  0  0  0  0  0  0  0
   12.4998   -3.2388    4.1628 C   0  0  0  0  0  0  0  0  0  0  0  0
    9.7865   -2.9547    3.3441 C   0  0  0  0  0  0  0  0  0  0  0  0
   11.7564   -4.3284    3.6696 C   0  0  0  0  0  0  0  0  0  0  0  0
   13.9270   -3.4382    4.6046 C   0  0  0  0  0  0  0  0  0  0  0  0
   10.4296   -4.1920    3.2659 C   0  0  0  0  0  0  0  0  0  0  0  0
   14.9112   -2.8376    3.6126 C   0  0  0  0  0  0  0  0  0  0  0  0
   12.1409    1.8767    2.9682 H   0  0  0  0  0  0  0  0  0  0  0  0
   12.0180    3.3629    3.9250 H   0  0  0  0  0  0  0  0  0  0  0  0
   12.8999    1.4696    6.4331 H   0  0  0  0  0  0  0  0  0  0  0  0
   11.2337    1.2144    7.0193 H   0  0  0  0  0  0  0  0  0  0  0  0
    9.7436    1.9844    2.8756 H   0  0  0  0  0  0  0  0  0  0  0  0
    8.2954    2.3140    3.8229 H   0  0  0  0  0  0  0  0  0  0  0  0
   13.1678   -0.5944    5.0310 H   0  0  0  0  0  0  0  0  0  0  0  0
   10.8000    3.5586    6.9361 H   0  0  0  0  0  0  0  0  0  0  0  0
   12.3882    3.8687    6.2771 H   0  0  0  0  0  0  0  0  0  0  0  0
   12.2218    3.2665    7.9089 H   0  0  0  0  0  0  0  0  0  0  0  0
    8.4542   -0.0357    2.9079 H   0  0  0  0  0  0  0  0  0  0  0  0
    8.2091    0.0704    4.6291 H   0  0  0  0  0  0  0  0  0  0  0  0
    8.8043   -2.8577    3.0425 H   0  0  0  0  0  0  0  0  0  0  0  0
   12.2071   -5.2545    3.6053 H   0  0  0  0  0  0  0  0  0  0  0  0
   14.1196   -4.4870    4.6926 H   0  0  0  0  0  0  0  0  0  0  0  0
   14.0575   -2.9446    5.5450 H   0  0  0  0  0  0  0  0  0  0  0  0
    9.9176   -5.0126    2.9060 H   0  0  0  0  0  0  0  0  0  0  0  0
   15.9023   -2.9004    4.0110 H   0  0  0  0  0  0  0  0  0  0  0  0
   14.6612   -1.8119    3.4387 H   0  0  0  0  0  0  0  0  0  0  0  0
   14.8627   -3.3780    2.6904 H   0  0  0  0  0  0  0  0  0  0  0  0
  1  2  2  0  0  0  0
  2  3  1  0  0  0  0
  2  4  1  0  0  0  0
  4 22  1  0  0  0  0
  4 23  1  0  0  0  0
  5  4  1  0  0  0  0
  5  6  1  0  0  0  0
  5  7  1  0  0  0  0
  5  8  1  0  0  0  0
  6  9  1  0  0  0  0
  7 10  1  0  0  0  0
  7 11  2  0  0  0  0
  8 12  1  0  0  0  0
  8 24  1  0  0  0  0
  8 25  1  0  0  0  0
  9 13  1  0  0  0  0
  9 26  1  0  0  0  0
  9 27  1  0  0  0  0
 10 14  1  0  0  0  0
 10 28  1  0  0  0  0
 11 15  1  0  0  0  0
 11 13  1  0  0  0  0
 12 29  1  0  0  0  0
 12 30  1  0  0  0  0
 12 31  1  0  0  0  0
 13 32  1  0  0  0  0
 13 33  1  0  0  0  0
 14 16  1  0  0  0  0
 14 15  2  0  0  0  0
 15 17  1  0  0  0  0
 16 18  2  0  0  0  0
 16 19  1  0  0  0  0
 17 20  2  0  0  0  0
 17 34  1  0  0  0  0
 18 20  1  0  0  0  0
 18 35  1  0  0  0  0
 19 21  1  0  0  0  0
 19 36  1  0  0  0  0
 19 37  1  0  0  0  0
 20 38  1  0  0  0  0
 21 39  1  0  0  0  0
 21 40  1  0  0  0  0
 21 41  1  0  0  0  0
M  CHG  1   3  -1
M  END
>  <Code-name>
N03

>  <Compound>
Etodolac

>  <Specie>


>  <Reference>


>  <Organism>
COX-2

>  <Smiles>
CC[C@]1(CC(O)=O)OCCc2c1[nH]c1c2cccc1CC

>  <MMFF94 Energy>
10.935

>  <Total Molweight>
287.358

>  <Molweight>
287.358

>  <Monoisotopic Mass>
287.152144

>  <cLogP>
2.9812

>  <cLogS>
-3.529

>  <H-Acceptors>
4

>  <H-Donors>
2

>  <Total Surface Area>
221.76

>  <Relative PSA>
0.22606

>  <Polar Surface Area>
62.32

>  <Druglikeness>
1.5288

>  <Mutagenic>
none

>  <Tumorigenic>
none

>  <Reproductive Effective>
none

>  <Irritant>
none

>  <Nasty Functions>


>  <Shape Index>
0.47619

>  <Molecular Flexibility>
0.38414

>  <Molecular Complexity>
0.91337

>  <Fragments>
1

>  <Non-H Atoms>
21

>  <Non-C/H Atoms>
4

>  <Metal-Atoms>
0

>  <Electronegative Atoms>
4

>  <Stereo Centers>
1

>  <Rotatable Bonds>
4

>  <Rings Closures>
3

>  <Small Rings>
3

>  <Aromatic Rings>
2

>  <Aromatic Atoms>
9

>  <sp3-Atoms>
10

>  <Symmetric atoms>
0

>  <Amides>
0

>  <Amines>
0

>  <Alkyl-Amines>
0

>  <Aromatic Amines>
0

>  <Aromatic Nitrogens>
1

>  <Basic Nitrogens>
0

>  <Acidic Oxygens>
1

>  <Stereo Configuration>
this enantiomer

> <Gold.Version>
5.8.1

> <Gold.Id.Protein>
ID_2|Prot_COX2_5IKQ_Alig|mol2

> <Gold.Goldscore.Fitness>
56.9502

> <Gold.Goldscore.Internal.Vdw>
-2.3250

> <Gold.Goldscore.Internal.Torsion>
-2.5081

> <Gold.Goldscore.External.Vdw>
40.1746

> <Gold.Goldscore.Internal.HBond>
0.0000

> <Gold.Goldscore.External.HBond>
3.6194

> <Gold.Goldscore.Internal.Correction>
-2.9237

> <Gold.Goldscore.Hbonds>
donor molecule, donor type, donor heavy atom, donor atom, acceptor molecule, acceptor atom, score
      P1  H  5176  5185       L1     3  0.51
      L1  H    10    28       P1  5176  0.29

> <Gold.Goldscore.Internal.Vdw.Weighted>
-2.3250

> <Gold.Goldscore.Internal.Torsion.Weighted>
-2.5081

> <Gold.Goldscore.External.Vdw.Weighted>
55.2401

> <Gold.Goldscore.Internal.HBond.Weighted>
0.0000

> <Gold.Goldscore.External.HBond.Weighted>
3.6194

> <Gold.Goldscore.Internal.Correction.Weighted>
-2.9237

> <Gold.Protein.RotatedTorsions>
[ 5077 5068 5067 5065 ] final  -32.82 input  179.94 | X-H torsion
[ 5157 5152 5151 5148 ] final  172.00 input -179.92 | X-H torsion
[ 5185 5176 5175 5173 ] final  139.17 input -179.99 | X-H torsion
[ 5712 5703 5702 5700 ] final   90.51 input  180.00 | X-H torsion
[ 8036 8031 8030 8027 ] final -150.22 input -179.94 | X-H torsion
[ 2749 2745 2743 2740 ] final   -4.36 input  -60.05 | X-H torsion
[ 1366 1361 1360 1357 ] final   -0.70 input  -60.09 | X-H torsion
[ 2556 2551 2550 2547 ] final   45.89 input   59.97 | X-H torsion

> <Gold.Protein.ActiveResidues>
 PRO86   VAL89   HIS90   LEU93   THR94   ILE112  MET113  TYR115  VAL116  LEU117 
 THR118  SER119  ARG120  SER121  LEU123  ILE124  GLN192  SER194  PHE198  PHE201 
 ALA202  GLN203  PHE205  THR206  PHE209  PHE210  VAL228  ILE341  ILE343  VAL344 
 ILE345  GLU346  ASP347  TYR348  VAL349  GLN350  HIS351  LEU352  SER353  GLY354 
 TYR355  PHE357  LEU359  LYS360  GLU380  PHE381  ASN382  THR383  LEU384  TYR385 
 HIS386  TRP387  LEU390  VAL434  LEU507  ARG513  ALA516  ILE517  PHE518  GLY519 
 GLU520  THR521  MET522  VAL523  GLU524  VAL525  GLY526  ALA527  PRO528  PHE529 
 SER530  LEU531  LYS532  GLY533  LEU534  MET535  COH609 

> <Gold.Protein.RotatedAtoms>
   17.6295    7.6377    2.3812 H   0  0  0  0  0  0  0  0  0  0  0  0  # atno 1366 bound_to 1361
    5.1853  -10.1403    7.6091 H   0  0  0  0  0  0  0  0  0  0  0  0  # atno 2556 bound_to 2551
   -4.0933    0.1751    1.0041 H   0  0  0  0  0  0  0  0  0  0  0  0  # atno 2749 bound_to 2745
    1.2707   -2.7994    4.2778 H   0  0  0  0  0  0  0  0  0  0  0  0  # atno 5077 bound_to 5068
   12.4995   -1.4114    9.2088 H   0  0  0  0  0  0  0  0  0  0  0  0  # atno 5157 bound_to 5152
   15.1610    0.0703    4.9132 H   0  0  0  0  0  0  0  0  0  0  0  0  # atno 5185 bound_to 5176
    2.9217   -0.7834    2.4799 H   0  0  0  0  0  0  0  0  0  0  0  0  # atno 5712 bound_to 5703
    6.0870    3.9738    3.6569 H   0  0  0  0  0  0  0  0  0  0  0  0  # atno 8036 bound_to 8031
    2.2616   -1.8598    3.6479 LP  0  0  0  0  0  0  0  0  0  0  0  0  # atno 8267 bound_to 5068
    0.7013   -1.4566    3.9115 LP  0  0  0  0  0  0  0  0  0  0  0  0  # atno 8268 bound_to 5068
   12.6702   -2.9066    9.2206 LP  0  0  0  0  0  0  0  0  0  0  0  0  # atno 8279 bound_to 5152
   11.2138   -2.1802    9.3531 LP  0  0  0  0  0  0  0  0  0  0  0  0  # atno 8280 bound_to 5152
   15.7944   -1.2494    4.5728 LP  0  0  0  0  0  0  0  0  0  0  0  0  # atno 8281 bound_to 5176
   16.6564    0.0486    5.0612 LP  0  0  0  0  0  0  0  0  0  0  0  0  # atno 8282 bound_to 5176
    1.4915   -0.6880    2.9316 LP  0  0  0  0  0  0  0  0  0  0  0  0  # atno 8283 bound_to 5703
    2.3734    0.6158    2.4969 LP  0  0  0  0  0  0  0  0  0  0  0  0  # atno 8284 bound_to 5703
    4.6624    4.1457    3.2087 LP  0  0  0  0  0  0  0  0  0  0  0  0  # atno 8309 bound_to 8031
    5.6462    5.4063    3.5400 LP  0  0  0  0  0  0  0  0  0  0  0  0  # atno 8310 bound_to 8031
   -2.8149   -0.6179    1.0119 LP  0  0  0  0  0  0  0  0  0  0  0  0  # atno 8323 bound_to 2745
   -3.4937   -0.0446   -0.3581 LP  0  0  0  0  0  0  0  0  0  0  0  0  # atno 8324 bound_to 2745
   18.5260    7.2831    3.5364 LP  0  0  0  0  0  0  0  0  0  0  0  0  # atno 8335 bound_to 1361
   18.5827    6.5079    2.1002 LP  0  0  0  0  0  0  0  0  0  0  0  0  # atno 8336 bound_to 1361
    4.6668   -8.7807    7.9923 LP  0  0  0  0  0  0  0  0  0  0  0  0  # atno 8342 bound_to 2551
    4.6604   -9.3305    6.4547 LP  0  0  0  0  0  0  0  0  0  0  0  0  # atno 8343 bound_to 2551

