
N07|LMW3_p|sdf|218|dock12
  -GOLD-   61122 6283D 1   1.00000     0.00000

 32 33  0  0  0  0  0  0  0  0  2 V2000
    5.8958    0.3983    3.5687 Cl  0  0  0  0  0  0  0  0  0  0  0  0
    6.5592   -0.2272    2.0963 C   0  0  0  0  0  0  0  0  0  0  0  0
    7.7760   -0.9300    2.0514 C   0  0  0  0  0  0  0  0  0  0  0  0
    5.7697   -0.0824    0.9442 C   0  0  0  0  0  0  0  0  0  0  0  0
    8.6735   -1.0731    3.1318 N   0  0  0  0  0  0  0  0  0  0  0  0
    8.1448   -1.4891    0.8142 C   0  0  0  0  0  0  0  0  0  0  0  0
    6.1741   -0.6375   -0.2698 C   0  0  0  0  0  0  0  0  0  0  0  0
    9.7293   -1.9798    3.3552 C   0  0  0  0  0  0  0  0  0  0  0  0
    9.2937   -2.1796    0.7214 F   0  0  0  0  0  0  0  0  0  0  0  0
    7.3653   -1.3503   -0.3327 C   0  0  0  0  0  0  0  0  0  0  0  0
   10.9510   -1.5254    3.8959 C   0  0  0  0  0  0  0  0  0  0  0  0
    9.6076   -3.3376    3.0288 C   0  0  0  0  0  0  0  0  0  0  0  0
   11.9949   -2.4416    4.1296 C   0  0  0  0  0  0  0  0  0  0  0  0
   11.1761   -0.0705    4.2360 C   0  0  0  0  0  0  0  0  0  0  0  0
   10.6538   -4.2361    3.2545 C   0  0  0  0  0  0  0  0  0  0  0  0
   11.8503   -3.7985    3.8226 C   0  0  0  0  0  0  0  0  0  0  0  0
   12.6159    0.2420    4.5409 C   0  0  0  0  0  0  0  0  0  0  0  0
   12.9854   -4.7541    4.0407 C   0  0  0  0  0  0  0  0  0  0  0  0
   13.5244    0.3428    3.7324 O   0  0  0  0  0  0  0  0  0  0  0  0
   12.8546    0.4073    5.8612 O   0  5  0  0  0  0  0  0  0  0  0  0
    4.8812    0.4399    0.9962 H   0  0  0  0  0  0  0  0  0  0  0  0
    8.5377   -0.4236    3.8589 H   0  0  0  0  0  0  0  0  0  0  0  0
    5.5933   -0.5197   -1.1147 H   0  0  0  0  0  0  0  0  0  0  0  0
    7.6706   -1.7741   -1.2228 H   0  0  0  0  0  0  0  0  0  0  0  0
    8.7274   -3.6806    2.6133 H   0  0  0  0  0  0  0  0  0  0  0  0
   12.8826   -2.1056    4.5346 H   0  0  0  0  0  0  0  0  0  0  0  0
   10.5843    0.1757    5.0928 H   0  0  0  0  0  0  0  0  0  0  0  0
   10.8959    0.5071    3.3800 H   0  0  0  0  0  0  0  0  0  0  0  0
   10.5405   -5.2296    2.9994 H   0  0  0  0  0  0  0  0  0  0  0  0
   12.6032   -5.6844    4.4058 H   0  0  0  0  0  0  0  0  0  0  0  0
   13.6656   -4.3423    4.7567 H   0  0  0  0  0  0  0  0  0  0  0  0
   13.4971   -4.9172    3.1152 H   0  0  0  0  0  0  0  0  0  0  0  0
  1  2  1  0  0  0  0
  2  3  2  0  0  0  0
  2  4  1  0  0  0  0
  3  5  1  0  0  0  0
  3  6  1  0  0  0  0
  4  7  2  0  0  0  0
  4 21  1  0  0  0  0
  5  8  1  0  0  0  0
  5 22  1  0  0  0  0
  6  9  1  0  0  0  0
  6 10  2  0  0  0  0
  7 10  1  0  0  0  0
  7 23  1  0  0  0  0
  8 11  2  0  0  0  0
  8 12  1  0  0  0  0
 10 24  1  0  0  0  0
 11 13  1  0  0  0  0
 11 14  1  0  0  0  0
 12 15  2  0  0  0  0
 12 25  1  0  0  0  0
 13 16  2  0  0  0  0
 13 26  1  0  0  0  0
 14 17  1  0  0  0  0
 14 27  1  0  0  0  0
 14 28  1  0  0  0  0
 15 16  1  0  0  0  0
 15 29  1  0  0  0  0
 16 18  1  0  0  0  0
 17 19  2  0  0  0  0
 17 20  1  0  0  0  0
 18 30  1  0  0  0  0
 18 31  1  0  0  0  0
 18 32  1  0  0  0  0
M  CHG  1  20  -1
M  END
>  <Code-name>
N07

>  <Compound>
Lumiracoxib

>  <Specie>


>  <Reference>


>  <Organism>
COX-2

>  <Smiles>
Cc(cc1)cc(CC(O)=O)c1Nc(c(F)ccc1)c1Cl

>  <MMFF94 Energy>
52.88

>  <Total Molweight>
293.724

>  <Molweight>
293.724

>  <Monoisotopic Mass>
293.061884

>  <cLogP>
3.7239

>  <cLogS>
-4.566

>  <H-Acceptors>
3

>  <H-Donors>
2

>  <Total Surface Area>
216.37

>  <Relative PSA>
0.17378

>  <Polar Surface Area>
49.33

>  <Druglikeness>
-2.0597

>  <Mutagenic>
none

>  <Tumorigenic>
none

>  <Reproductive Effective>
none

>  <Irritant>
none

>  <Nasty Functions>


>  <Shape Index>
0.5

>  <Molecular Flexibility>
0.52068

>  <Molecular Complexity>
0.75973

>  <Fragments>
1

>  <Non-H Atoms>
20

>  <Non-C/H Atoms>
5

>  <Metal-Atoms>
0

>  <Electronegative Atoms>
5

>  <Stereo Centers>
0

>  <Rotatable Bonds>
4

>  <Rings Closures>
2

>  <Small Rings>
2

>  <Aromatic Rings>
2

>  <Aromatic Atoms>
12

>  <sp3-Atoms>
3

>  <Symmetric atoms>
0

>  <Amides>
0

>  <Amines>
1

>  <Alkyl-Amines>
0

>  <Aromatic Amines>
1

>  <Aromatic Nitrogens>
0

>  <Basic Nitrogens>
0

>  <Acidic Oxygens>
1

>  <Stereo Configuration>


> <Gold.Version>
5.8.1

> <Gold.Id.Protein>
ID_2|Prot_COX2_5IKQ_Alig|mol2

> <Gold.Goldscore.Fitness>
60.0356

> <Gold.Goldscore.Internal.Vdw>
-2.0556

> <Gold.Goldscore.Internal.Torsion>
-4.9376

> <Gold.Goldscore.External.Vdw>
41.2796

> <Gold.Goldscore.Internal.HBond>
0.0000

> <Gold.Goldscore.External.HBond>
5.7969

> <Gold.Goldscore.Internal.Correction>
-4.4724

> <Gold.Goldscore.Hbonds>
donor molecule, donor type, donor heavy atom, donor atom, acceptor molecule, acceptor atom, score
      P1  H  5176  5185       L1    19  0.97

> <Gold.Goldscore.Internal.Vdw.Weighted>
-2.0556

> <Gold.Goldscore.Internal.Torsion.Weighted>
-4.9376

> <Gold.Goldscore.External.Vdw.Weighted>
56.7595

> <Gold.Goldscore.Internal.HBond.Weighted>
0.0000

> <Gold.Goldscore.External.HBond.Weighted>
5.7969

> <Gold.Goldscore.Internal.Correction.Weighted>
-4.4724

> <Gold.Protein.RotatedTorsions>
[ 5077 5068 5067 5065 ] final -164.22 input  179.94 | X-H torsion
[ 5157 5152 5151 5148 ] final -111.91 input -179.92 | X-H torsion
[ 5185 5176 5175 5173 ] final  108.35 input -179.99 | X-H torsion
[ 5712 5703 5702 5700 ] final   98.40 input  180.00 | X-H torsion
[ 8036 8031 8030 8027 ] final  137.90 input -179.94 | X-H torsion
[ 2749 2745 2743 2740 ] final  -15.34 input  -60.05 | X-H torsion
[ 1366 1361 1360 1357 ] final -142.46 input  -60.09 | X-H torsion
[ 2556 2551 2550 2547 ] final   69.60 input   59.97 | X-H torsion

> <Gold.Protein.ActiveResidues>
 PRO86   VAL89   HIS90   LEU93   THR94   ILE112  MET113  TYR115  VAL116  LEU117 
 THR118  SER119  ARG120  SER121  LEU123  ILE124  GLN192  SER194  PHE198  PHE201 
 ALA202  GLN203  PHE205  THR206  PHE209  PHE210  VAL228  ILE341  ILE343  VAL344 
 ILE345  GLU346  ASP347  TYR348  VAL349  GLN350  HIS351  LEU352  SER353  GLY354 
 TYR355  PHE357  LEU359  LYS360  GLU380  PHE381  ASN382  THR383  LEU384  TYR385 
 HIS386  TRP387  LEU390  VAL434  LEU507  ARG513  ALA516  ILE517  PHE518  GLY519 
 GLU520  THR521  MET522  VAL523  GLU524  VAL525  GLY526  ALA527  PRO528  PHE529 
 SER530  LEU531  LYS532  GLY533  LEU534  MET535  COH609 

> <Gold.Protein.RotatedAtoms>
   18.6787    7.0747    3.2827 H   0  0  0  0  0  0  0  0  0  0  0  0  # atno 1366 bound_to 1361
    5.1544  -10.1910    7.2899 H   0  0  0  0  0  0  0  0  0  0  0  0  # atno 2556 bound_to 2551
   -4.0198    0.1169    1.1226 H   0  0  0  0  0  0  0  0  0  0  0  0  # atno 2749 bound_to 2745
    2.0667   -1.7446    3.7086 H   0  0  0  0  0  0  0  0  0  0  0  0  # atno 5077 bound_to 5068
   11.5483   -1.6077    9.2872 H   0  0  0  0  0  0  0  0  0  0  0  0  # atno 5157 bound_to 5152
   15.0413   -0.3109    4.7876 H   0  0  0  0  0  0  0  0  0  0  0  0  # atno 5185 bound_to 5176
    2.9742   -0.6927    2.4523 H   0  0  0  0  0  0  0  0  0  0  0  0  # atno 5712 bound_to 5703
    5.2401    3.7407    3.3654 H   0  0  0  0  0  0  0  0  0  0  0  0  # atno 8036 bound_to 8031
    0.5964   -1.5955    3.9865 LP  0  0  0  0  0  0  0  0  0  0  0  0  # atno 8267 bound_to 5068
    1.4131   -2.9840    4.2546 LP  0  0  0  0  0  0  0  0  0  0  0  0  # atno 8268 bound_to 5068
   13.0381   -1.8036    9.2027 LP  0  0  0  0  0  0  0  0  0  0  0  0  # atno 8279 bound_to 5152
   11.9837   -3.0483    9.2772 LP  0  0  0  0  0  0  0  0  0  0  0  0  # atno 8280 bound_to 5152
   16.2785   -1.1554    4.6646 LP  0  0  0  0  0  0  0  0  0  0  0  0  # atno 8281 bound_to 5176
   16.3161    0.4123    5.1202 LP  0  0  0  0  0  0  0  0  0  0  0  0  # atno 8282 bound_to 5176
    1.5531   -0.8021    2.9291 LP  0  0  0  0  0  0  0  0  0  0  0  0  # atno 8283 bound_to 5703
    2.2488    0.6211    2.5326 LP  0  0  0  0  0  0  0  0  0  0  0  0  # atno 8284 bound_to 5703
    4.9445    5.2131    3.2984 LP  0  0  0  0  0  0  0  0  0  0  0  0  # atno 8309 bound_to 8031
    6.3803    4.6186    3.8001 LP  0  0  0  0  0  0  0  0  0  0  0  0  # atno 8310 bound_to 8031
   -2.7468   -0.6356    0.8457 LP  0  0  0  0  0  0  0  0  0  0  0  0  # atno 8323 bound_to 2745
   -3.6498    0.0427   -0.3338 LP  0  0  0  0  0  0  0  0  0  0  0  0  # atno 8324 bound_to 2745
   18.3309    6.6430    1.8839 LP  0  0  0  0  0  0  0  0  0  0  0  0  # atno 8335 bound_to 1361
   17.5227    7.8215    2.6743 LP  0  0  0  0  0  0  0  0  0  0  0  0  # atno 8336 bound_to 1361
    4.8310   -9.0507    8.2169 LP  0  0  0  0  0  0  0  0  0  0  0  0  # atno 8342 bound_to 2551
    4.5331   -8.9999    6.6121 LP  0  0  0  0  0  0  0  0  0  0  0  0  # atno 8343 bound_to 2551

