
021|LMW3_p|sdf|21|dock1
  -GOLD-   6 722 4 03D 1   1.00000     0.00000

 73 77  0  0  0  0  0  0  0  0  1 V2000
   10.3663   -0.2159    1.2089 O   0  0  0  0  0  0  0  0  0  0  0  0
    9.1547   -0.8778    0.6301 O   0  0  0  0  0  0  0  0  0  0  0  0
   10.2643   -0.0875    2.6555 C   0  0  1  0  0  0  0  0  0  0  0  0
    8.1452   -1.1043    1.6580 C   0  0  1  0  0  0  0  0  0  0  0  0
    9.0696    0.8497    2.9092 C   0  0  0  0  0  0  0  0  0  0  0  0
    9.9413   -1.4706    3.1874 C   0  0  0  0  0  0  0  0  0  0  0  0
   11.5643    0.5819    3.1279 C   0  0  1  0  0  0  0  0  0  0  0  0
    8.8276   -2.0115    2.6655 C   0  0  0  0  0  0  0  0  0  0  0  0
    7.7706    0.2876    2.2900 C   0  0  1  0  0  0  0  0  0  0  0  0
    6.9549   -1.7777    0.9630 C   0  0  0  0  0  0  0  0  0  0  0  0
    9.1595    1.9935    3.6242 C   0  0  0  0  0  0  0  0  0  0  0  0
   11.4581    1.3327    4.4785 C   0  0  2  0  0  0  0  0  0  0  0  0
   12.8449   -0.2432    3.2470 C   0  0  0  0  0  0  0  0  0  0  0  0
    7.2133    1.2496    1.2040 C   0  0  0  0  0  0  0  0  0  0  0  0
    6.7289    0.1192    3.4268 C   0  0  0  0  0  0  0  0  0  0  0  0
    6.1065   -0.8026    0.1330 C   0  0  2  0  0  0  0  0  0  0  0  0
   10.4263    2.4692    4.2994 C   0  0  0  0  0  0  0  0  0  0  0  0
   12.9296    1.8262    4.6011 C   0  0  2  0  0  0  0  0  0  0  0  0
   11.0228    0.4302    5.6519 C   0  0  0  0  0  0  0  0  0  0  0  0
   13.7672    0.6059    4.1428 C   0  0  0  0  0  0  0  0  0  0  0  0
    6.7456    0.5649   -0.0884 C   0  0  0  0  0  0  0  0  0  0  0  0
    4.8484   -0.6248    0.7874 O   0  0  0  0  0  0  0  0  0  0  0  0
   13.3878    2.5287    5.9054 C   0  0  1  0  0  0  0  0  0  0  0  0
   14.8361    2.9572    5.9640 C   0  0  0  0  0  0  0  0  0  0  0  0
   12.5259    3.7746    6.1630 C   0  0  0  0  0  0  0  0  0  0  0  0
   15.5040    3.4826    4.9230 C   0  0  0  0  0  0  0  0  0  0  0  0
   16.9635    3.8845    4.9719 C   0  0  1  0  0  0  0  0  0  0  0  0
   17.8708    2.6735    5.3303 C   0  0  0  0  0  0  0  0  0  0  0  0
   17.3289    4.5166    3.6238 C   0  0  0  0  0  0  0  0  0  0  0  0
   19.3514    3.0753    5.4006 C   0  0  0  0  0  0  0  0  0  0  0  0
   17.7221    1.5218    4.3287 C   0  0  0  0  0  0  0  0  0  0  0  0
   10.5251   -1.9534    3.8882 H   0  0  0  0  0  0  0  0  0  0  0  0
   11.6651    1.2287    2.2815 H   0  0  0  0  0  0  0  0  0  0  0  0
    8.4733   -2.9460    2.9226 H   0  0  0  0  0  0  0  0  0  0  0  0
    6.3304   -2.2199    1.7109 H   0  0  0  0  0  0  0  0  0  0  0  0
    7.3523   -2.5067    0.2880 H   0  0  0  0  0  0  0  0  0  0  0  0
    8.3130    2.5769    3.7147 H   0  0  0  0  0  0  0  0  0  0  0  0
   13.2875   -0.3958    2.2849 H   0  0  0  0  0  0  0  0  0  0  0  0
   12.6659   -1.2168    3.6531 H   0  0  0  0  0  0  0  0  0  0  0  0
    7.9844    1.9467    0.9504 H   0  0  0  0  0  0  0  0  0  0  0  0
    6.3469    1.7118    1.6290 H   0  0  0  0  0  0  0  0  0  0  0  0
    7.1525   -0.4682    4.2145 H   0  0  0  0  0  0  0  0  0  0  0  0
    5.8592   -0.3722    3.0437 H   0  0  0  0  0  0  0  0  0  0  0  0
    6.4566    1.0817    3.8066 H   0  0  0  0  0  0  0  0  0  0  0  0
    6.0032   -1.2416   -0.8373 H   0  0  0  0  0  0  0  0  0  0  0  0
   10.1762    2.8617    5.2628 H   0  0  0  0  0  0  0  0  0  0  0  0
   10.8686    3.2173    3.6752 H   0  0  0  0  0  0  0  0  0  0  0  0
   13.0741    2.6882    3.9839 H   0  0  0  0  0  0  0  0  0  0  0  0
   11.7486   -0.3428    5.7955 H   0  0  0  0  0  0  0  0  0  0  0  0
   10.0727   -0.0093    5.4304 H   0  0  0  0  0  0  0  0  0  0  0  0
   10.9453    1.0168    6.5434 H   0  0  0  0  0  0  0  0  0  0  0  0
   14.6231    0.9314    3.5894 H   0  0  0  0  0  0  0  0  0  0  0  0
   14.1210    0.0417    4.9803 H   0  0  0  0  0  0  0  0  0  0  0  0
    7.5930    0.4410   -0.7297 H   0  0  0  0  0  0  0  0  0  0  0  0
    5.9937    1.1933   -0.5181 H   0  0  0  0  0  0  0  0  0  0  0  0
    4.1542   -1.0748    0.2810 H   0  0  0  0  0  0  0  0  0  0  0  0
   13.2677    1.7730    6.6533 H   0  0  0  0  0  0  0  0  0  0  0  0
   15.3417    2.8394    6.8560 H   0  0  0  0  0  0  0  0  0  0  0  0
   11.5953    3.4802    6.6014 H   0  0  0  0  0  0  0  0  0  0  0  0
   12.3405    4.2778    5.2371 H   0  0  0  0  0  0  0  0  0  0  0  0
   13.0417    4.4335    6.8299 H   0  0  0  0  0  0  0  0  0  0  0  0
   14.9921    3.6204    4.0375 H   0  0  0  0  0  0  0  0  0  0  0  0
   17.1250    4.6038    5.7474 H   0  0  0  0  0  0  0  0  0  0  0  0
   17.5446    2.3409    6.2936 H   0  0  0  0  0  0  0  0  0  0  0  0
   16.6454    5.3103    3.4051 H   0  0  0  0  0  0  0  0  0  0  0  0
   17.2719    3.7747    2.8549 H   0  0  0  0  0  0  0  0  0  0  0  0
   18.3244    4.9060    3.6706 H   0  0  0  0  0  0  0  0  0  0  0  0
   19.9232    2.2622    5.7965 H   0  0  0  0  0  0  0  0  0  0  0  0
   19.4594    3.9298    6.0355 H   0  0  0  0  0  0  0  0  0  0  0  0
   19.7032    3.3139    4.4186 H   0  0  0  0  0  0  0  0  0  0  0  0
   18.2590    0.6677    4.6850 H   0  0  0  0  0  0  0  0  0  0  0  0
   18.1167    1.8209    3.3801 H   0  0  0  0  0  0  0  0  0  0  0  0
   16.6868    1.2734    4.2220 H   0  0  0  0  0  0  0  0  0  0  0  0
  1  2  1  0  0  0  0
  3  1  1  0  0  0  0
  3  5  1  0  0  0  0
  3  6  1  0  0  0  0
  3  7  1  0  0  0  0
  4  2  1  0  0  0  0
  4  8  1  0  0  0  0
  4  9  1  0  0  0  0
  4 10  1  0  0  0  0
  5 11  2  0  0  0  0
  5  9  1  0  0  0  0
  6  8  2  0  0  0  0
  6 32  1  0  0  0  0
  7 12  1  0  0  0  0
  7 13  1  0  0  0  0
  7 33  1  0  0  0  0
  8 34  1  0  0  0  0
  9 14  1  0  0  0  0
  9 15  1  0  0  0  0
 10 16  1  0  0  0  0
 10 35  1  0  0  0  0
 10 36  1  0  0  0  0
 11 17  1  0  0  0  0
 11 37  1  0  0  0  0
 12 18  1  0  0  0  0
 12 19  1  0  0  0  0
 12 17  1  0  0  0  0
 13 20  1  0  0  0  0
 13 38  1  0  0  0  0
 13 39  1  0  0  0  0
 14 21  1  0  0  0  0
 14 40  1  0  0  0  0
 14 41  1  0  0  0  0
 15 42  1  0  0  0  0
 15 43  1  0  0  0  0
 15 44  1  0  0  0  0
 16 22  1  0  0  0  0
 16 21  1  0  0  0  0
 16 45  1  0  0  0  0
 17 46  1  0  0  0  0
 17 47  1  0  0  0  0
 18 23  1  0  0  0  0
 18 20  1  0  0  0  0
 18 48  1  0  0  0  0
 19 49  1  0  0  0  0
 19 50  1  0  0  0  0
 19 51  1  0  0  0  0
 20 52  1  0  0  0  0
 20 53  1  0  0  0  0
 21 54  1  0  0  0  0
 21 55  1  0  0  0  0
 22 56  1  0  0  0  0
 23 24  1  0  0  0  0
 23 25  1  0  0  0  0
 23 57  1  0  0  0  0
 24 26  2  0  0  0  0
 24 58  1  0  0  0  0
 25 59  1  0  0  0  0
 25 60  1  0  0  0  0
 25 61  1  0  0  0  0
 26 27  1  0  0  0  0
 26 62  1  0  0  0  0
 27 28  1  0  0  0  0
 27 29  1  0  0  0  0
 27 63  1  0  0  0  0
 28 30  1  0  0  0  0
 28 31  1  0  0  0  0
 28 64  1  0  0  0  0
 29 65  1  0  0  0  0
 29 66  1  0  0  0  0
 29 67  1  0  0  0  0
 30 68  1  0  0  0  0
 30 69  1  0  0  0  0
 30 70  1  0  0  0  0
 31 71  1  0  0  0  0
 31 72  1  0  0  0  0
 31 73  1  0  0  0  0
M  END
>  <Code-name>
021

>  <Compound>
9,11-dehydroergosterol peroxide

>  <Specie>
Pleurotus eryngii

>  <Reference>
KIKUCHI et al., 2018

>  <Organism>
Anticancer Activity

>  <Smiles>
CC(C)[C@@H](C)/C=C/[C@@H](C)[C@@H](CC1)[C@@](C)(CC=C2[C@@]3(C)CC[C@@H](C4)O)[C@@H]1[C@]21OO[C@@]34C=C1

>  <MMFF94 Energy>
175.19

>  <Total Molweight>
426.638

>  <Molweight>
426.638

>  <Monoisotopic Mass>
426.313395

>  <cLogP>
6.2814

>  <cLogS>
-5.725

>  <H-Acceptors>
3

>  <H-Donors>
1

>  <Total Surface Area>
322.82

>  <Relative PSA>
0.10253

>  <Polar Surface Area>
38.69

>  <Druglikeness>
-2.0469

>  <Mutagenic>
none

>  <Tumorigenic>
high

>  <Reproductive Effective>
none

>  <Irritant>
none

>  <Nasty Functions>
peroxo

>  <Shape Index>
0.51613

>  <Molecular Flexibility>
0.34495

>  <Molecular Complexity>
1.0084

>  <Fragments>
1

>  <Non-H Atoms>
31

>  <Non-C/H Atoms>
3

>  <Metal-Atoms>
0

>  <Electronegative Atoms>
3

>  <Stereo Centers>
9

>  <Rotatable Bonds>
4

>  <Rings Closures>
5

>  <Small Rings>
6

>  <Aromatic Rings>
0

>  <Aromatic Atoms>
0

>  <sp3-Atoms>
25

>  <Symmetric atoms>
1

>  <Amides>
0

>  <Amines>
0

>  <Alkyl-Amines>
0

>  <Aromatic Amines>
0

>  <Aromatic Nitrogens>
0

>  <Basic Nitrogens>
0

>  <Acidic Oxygens>
0

>  <Stereo Configuration>
this enantiomer

> <Gold.Version>
5.8.1

> <Gold.Id.Protein>
ID_2|Prot_COX2_5IKQ_Alig|mol2

> <Gold.Goldscore.Fitness>
18.3687

> <Gold.Goldscore.Internal.Vdw>
-14.6423

> <Gold.Goldscore.Internal.Torsion>
-6.9650

> <Gold.Goldscore.External.Vdw>
19.4016

> <Gold.Goldscore.Internal.HBond>
0.0000

> <Gold.Goldscore.External.HBond>
0.0000

> <Gold.Goldscore.Internal.Correction>
-13.2987

> <Gold.Goldscore.Internal.Vdw.Weighted>
-14.6423

> <Gold.Goldscore.Internal.Torsion.Weighted>
-6.9650

> <Gold.Goldscore.External.Vdw.Weighted>
26.6773

> <Gold.Goldscore.Internal.HBond.Weighted>
0.0000

> <Gold.Goldscore.External.HBond.Weighted>
0.0000

> <Gold.Goldscore.Internal.Correction.Weighted>
-13.2987

> <Gold.Protein.RotatedTorsions>
[ 5077 5068 5067 5065 ] final  171.33 input  179.94 | X-H torsion
[ 5157 5152 5151 5148 ] final -142.45 input -179.92 | X-H torsion
[ 5185 5176 5175 5173 ] final  -29.88 input -179.99 | X-H torsion
[ 5712 5703 5702 5700 ] final  127.98 input  180.00 | X-H torsion
[ 8036 8031 8030 8027 ] final  178.59 input -179.94 | X-H torsion
[ 2749 2745 2743 2740 ] final  -57.92 input  -60.05 | X-H torsion
[ 1366 1361 1360 1357 ] final  -56.02 input  -60.09 | X-H torsion
[ 2556 2551 2550 2547 ] final   15.29 input   59.97 | X-H torsion

> <Gold.Protein.ActiveResidues>
 PRO86   VAL89   HIS90   LEU93   THR94   ILE112  MET113  TYR115  VAL116  LEU117 
 THR118  SER119  ARG120  SER121  LEU123  ILE124  GLN192  SER194  PHE198  PHE201 
 ALA202  GLN203  PHE205  THR206  PHE209  PHE210  VAL228  ILE341  ILE343  VAL344 
 ILE345  GLU346  ASP347  TYR348  VAL349  GLN350  HIS351  LEU352  SER353  GLY354 
 TYR355  PHE357  LEU359  LYS360  GLU380  PHE381  ASN382  THR383  LEU384  TYR385 
 HIS386  TRP387  LEU390  VAL434  LEU507  ARG513  ALA516  ILE517  PHE518  GLY519 
 GLU520  THR521  MET522  VAL523  GLU524  VAL525  GLY526  ALA527  PRO528  PHE529 
 SER530  LEU531  LYS532  GLY533  LEU534  MET535  COH609 

> <Gold.Protein.RotatedAtoms>
   17.8643    7.7543    3.0665 H   0  0  0  0  0  0  0  0  0  0  0  0  # atno 1366 bound_to 1361
    5.1380   -9.9120    7.9549 H   0  0  0  0  0  0  0  0  0  0  0  0  # atno 2556 bound_to 2551
   -3.5852   -0.1672    1.3665 H   0  0  0  0  0  0  0  0  0  0  0  0  # atno 2749 bound_to 2745
    1.8444   -1.4966    3.6804 H   0  0  0  0  0  0  0  0  0  0  0  0  # atno 5077 bound_to 5068
   11.8909   -1.3725    9.2609 H   0  0  0  0  0  0  0  0  0  0  0  0  # atno 5157 bound_to 5152
   16.3932   -0.8940    4.8009 H   0  0  0  0  0  0  0  0  0  0  0  0  # atno 5185 bound_to 5176
    3.0515   -0.3051    2.3770 H   0  0  0  0  0  0  0  0  0  0  0  0  # atno 5712 bound_to 5703
    5.7580    3.7311    3.5448 H   0  0  0  0  0  0  0  0  0  0  0  0  # atno 8036 bound_to 8031
    0.4847   -1.9483    4.1370 LP  0  0  0  0  0  0  0  0  0  0  0  0  # atno 8267 bound_to 5068
    1.7910   -2.9282    4.1378 LP  0  0  0  0  0  0  0  0  0  0  0  0  # atno 8268 bound_to 5068
   13.0749   -2.2992    9.1936 LP  0  0  0  0  0  0  0  0  0  0  0  0  # atno 8279 bound_to 5152
   11.5370   -2.8342    9.3178 LP  0  0  0  0  0  0  0  0  0  0  0  0  # atno 8280 bound_to 5152
   16.0390    0.5318    5.1175 LP  0  0  0  0  0  0  0  0  0  0  0  0  # atno 8281 bound_to 5176
   14.9323   -0.5747    4.6514 LP  0  0  0  0  0  0  0  0  0  0  0  0  # atno 8282 bound_to 5176
    1.8990   -1.1326    2.8729 LP  0  0  0  0  0  0  0  0  0  0  0  0  # atno 8283 bound_to 5703
    1.8101    0.4864    2.6790 LP  0  0  0  0  0  0  0  0  0  0  0  0  # atno 8284 bound_to 5703
    4.6230    4.6512    3.1913 LP  0  0  0  0  0  0  0  0  0  0  0  0  # atno 8309 bound_to 8031
    6.0803    5.1920    3.6919 LP  0  0  0  0  0  0  0  0  0  0  0  0  # atno 8310 bound_to 8031
   -2.7573   -0.5406    0.1671 LP  0  0  0  0  0  0  0  0  0  0  0  0  # atno 8323 bound_to 2745
   -4.1598    0.2880    0.0527 LP  0  0  0  0  0  0  0  0  0  0  0  0  # atno 8324 bound_to 2745
   18.9051    6.6679    3.0412 LP  0  0  0  0  0  0  0  0  0  0  0  0  # atno 8335 bound_to 1361
   17.9227    6.9837    1.7755 LP  0  0  0  0  0  0  0  0  0  0  0  0  # atno 8336 bound_to 1361
    4.5099   -8.6048    7.5538 LP  0  0  0  0  0  0  0  0  0  0  0  0  # atno 8342 bound_to 2551
    4.8739   -9.7795    6.4795 LP  0  0  0  0  0  0  0  0  0  0  0  0  # atno 8343 bound_to 2551

