
N09|LMW3_p|sdf|220|dock13
  -GOLD-   61122 6303D 1   1.00000     0.00000

 33 34  0  0  0  0  0  0  0  0  1 V2000
   13.8522    2.9305    7.0740 O   0  0  0  0  0  0  0  0  0  0  0  0
   12.6740    2.6568    6.8506 C   0  0  0  0  0  0  0  0  0  0  0  0
   12.2100    1.2594    6.4923 C   0  0  0  0  0  0  0  0  0  0  0  0
   11.6040    3.7151    6.9189 C   0  0  0  0  0  0  0  0  0  0  0  0
   11.7703    1.1585    5.0345 C   0  0  0  0  0  0  0  0  0  0  0  0
   11.5351   -0.2763    4.6317 C   0  0  0  0  0  0  0  0  0  0  0  0
   12.6182   -1.1275    4.3696 C   0  0  0  0  0  0  0  0  0  0  0  0
   10.2345   -0.7675    4.4840 C   0  0  0  0  0  0  0  0  0  0  0  0
   12.4155   -2.4596    3.9696 C   0  0  0  0  0  0  0  0  0  0  0  0
   10.0190   -2.0891    4.0871 C   0  0  0  0  0  0  0  0  0  0  0  0
   11.0989   -2.9462    3.8264 C   0  0  0  0  0  0  0  0  0  0  0  0
   13.4928   -3.3201    3.7085 C   0  0  0  0  0  0  0  0  0  0  0  0
   10.8996   -4.2779    3.4257 C   0  0  0  0  0  0  0  0  0  0  0  0
   13.2769   -4.6442    3.3104 C   0  0  0  0  0  0  0  0  0  0  0  0
   11.9788   -5.1283    3.1677 C   0  0  0  0  0  0  0  0  0  0  0  0
   11.6294   -6.3948    2.7868 O   0  0  0  0  0  0  0  0  0  0  0  0
   12.5836   -7.1236    2.0253 C   0  0  0  0  0  0  0  0  0  0  0  0
   11.3845    0.9979    7.1209 H   0  0  0  0  0  0  0  0  0  0  0  0
   13.0332    0.5912    6.6359 H   0  0  0  0  0  0  0  0  0  0  0  0
   12.0378    4.6411    7.2341 H   0  0  0  0  0  0  0  0  0  0  0  0
   10.8517    3.4171    7.6189 H   0  0  0  0  0  0  0  0  0  0  0  0
   11.1625    3.8389    5.9521 H   0  0  0  0  0  0  0  0  0  0  0  0
   12.5331    1.5753    4.4106 H   0  0  0  0  0  0  0  0  0  0  0  0
   10.8524    1.6965    4.9203 H   0  0  0  0  0  0  0  0  0  0  0  0
   13.5807   -0.7697    4.4720 H   0  0  0  0  0  0  0  0  0  0  0  0
    9.4289   -0.1498    4.6693 H   0  0  0  0  0  0  0  0  0  0  0  0
    9.0538   -2.4395    3.9844 H   0  0  0  0  0  0  0  0  0  0  0  0
   14.4585   -2.9712    3.8114 H   0  0  0  0  0  0  0  0  0  0  0  0
    9.9373   -4.6356    3.3198 H   0  0  0  0  0  0  0  0  0  0  0  0
   14.0810   -5.2631    3.1224 H   0  0  0  0  0  0  0  0  0  0  0  0
   12.1283   -8.0113    1.6385 H   0  0  0  0  0  0  0  0  0  0  0  0
   13.4103   -7.3900    2.6502 H   0  0  0  0  0  0  0  0  0  0  0  0
   12.9303   -6.5180    1.2141 H   0  0  0  0  0  0  0  0  0  0  0  0
  1  2  2  0  0  0  0
  2  3  1  0  0  0  0
  2  4  1  0  0  0  0
  3  5  1  0  0  0  0
  3 18  1  0  0  0  0
  3 19  1  0  0  0  0
  4 20  1  0  0  0  0
  4 21  1  0  0  0  0
  4 22  1  0  0  0  0
  5  6  1  0  0  0  0
  5 23  1  0  0  0  0
  5 24  1  0  0  0  0
  6  7  2  0  0  0  0
  6  8  1  0  0  0  0
  7  9  1  0  0  0  0
  7 25  1  0  0  0  0
  8 10  2  0  0  0  0
  8 26  1  0  0  0  0
  9 11  1  0  0  0  0
  9 12  2  0  0  0  0
 10 11  1  0  0  0  0
 10 27  1  0  0  0  0
 11 13  2  0  0  0  0
 12 14  1  0  0  0  0
 12 28  1  0  0  0  0
 13 15  1  0  0  0  0
 13 29  1  0  0  0  0
 14 15  2  0  0  0  0
 14 30  1  0  0  0  0
 15 16  1  0  0  0  0
 16 17  1  0  0  0  0
 17 31  1  0  0  0  0
 17 32  1  0  0  0  0
 17 33  1  0  0  0  0
M  END
>  <Code-name>
N09

>  <Compound>
Nebumetone

>  <Specie>


>  <Reference>


>  <Organism>
COX12

>  <Smiles>
CC(CCc(ccc1c2)cc1ccc2OC)=O

>  <MMFF94 Energy>
35.083

>  <Total Molweight>
228.290

>  <Molweight>
228.290

>  <Monoisotopic Mass>
228.115030

>  <cLogP>
3.3993

>  <cLogS>
-3.935

>  <H-Acceptors>
2

>  <H-Donors>
0

>  <Total Surface Area>
187.65

>  <Relative PSA>
0.12278

>  <Polar Surface Area>
26.3

>  <Druglikeness>
-3.9295

>  <Mutagenic>
none

>  <Tumorigenic>
none

>  <Reproductive Effective>
high

>  <Irritant>
high

>  <Nasty Functions>


>  <Shape Index>
0.70588

>  <Molecular Flexibility>
0.4412

>  <Molecular Complexity>
0.67019

>  <Fragments>
1

>  <Non-H Atoms>
17

>  <Non-C/H Atoms>
2

>  <Metal-Atoms>
0

>  <Electronegative Atoms>
2

>  <Stereo Centers>
0

>  <Rotatable Bonds>
4

>  <Rings Closures>
2

>  <Small Rings>
2

>  <Aromatic Rings>
2

>  <Aromatic Atoms>
10

>  <sp3-Atoms>
5

>  <Symmetric atoms>
0

>  <Amides>
0

>  <Amines>
0

>  <Alkyl-Amines>
0

>  <Aromatic Amines>
0

>  <Aromatic Nitrogens>
0

>  <Basic Nitrogens>
0

>  <Acidic Oxygens>
0

>  <Stereo Configuration>


> <Gold.Version>
5.8.1

> <Gold.Id.Protein>
ID_2|Prot_COX2_5IKQ_Alig|mol2

> <Gold.Goldscore.Fitness>
54.9621

> <Gold.Goldscore.Internal.Vdw>
-1.9874

> <Gold.Goldscore.Internal.Torsion>
-2.9028

> <Gold.Goldscore.External.Vdw>
40.6642

> <Gold.Goldscore.Internal.HBond>
0.0000

> <Gold.Goldscore.External.HBond>
0.0000

> <Gold.Goldscore.Internal.Correction>
-3.9389

> <Gold.Goldscore.Internal.Vdw.Weighted>
-1.9874

> <Gold.Goldscore.Internal.Torsion.Weighted>
-2.9028

> <Gold.Goldscore.External.Vdw.Weighted>
55.9133

> <Gold.Goldscore.Internal.HBond.Weighted>
0.0000

> <Gold.Goldscore.External.HBond.Weighted>
0.0000

> <Gold.Goldscore.Internal.Correction.Weighted>
-3.9389

> <Gold.Protein.RotatedTorsions>
[ 5077 5068 5067 5065 ] final -112.04 input  179.94 | X-H torsion
[ 5157 5152 5151 5148 ] final  179.94 input -179.92 | X-H torsion
[ 5185 5176 5175 5173 ] final -178.82 input -179.99 | X-H torsion
[ 5712 5703 5702 5700 ] final  -55.48 input  180.00 | X-H torsion
[ 8036 8031 8030 8027 ] final   30.57 input -179.94 | X-H torsion
[ 2749 2745 2743 2740 ] final   -4.81 input  -60.05 | X-H torsion
[ 1366 1361 1360 1357 ] final -131.86 input  -60.09 | X-H torsion
[ 2556 2551 2550 2547 ] final -173.48 input   59.97 | X-H torsion

> <Gold.Protein.ActiveResidues>
 PRO86   VAL89   HIS90   LEU93   THR94   ILE112  MET113  TYR115  VAL116  LEU117 
 THR118  SER119  ARG120  SER121  LEU123  ILE124  GLN192  SER194  PHE198  PHE201 
 ALA202  GLN203  PHE205  THR206  PHE209  PHE210  VAL228  ILE341  ILE343  VAL344 
 ILE345  GLU346  ASP347  TYR348  VAL349  GLN350  HIS351  LEU352  SER353  GLY354 
 TYR355  PHE357  LEU359  LYS360  GLU380  PHE381  ASN382  THR383  LEU384  TYR385 
 HIS386  TRP387  LEU390  VAL434  LEU507  ARG513  ALA516  ILE517  PHE518  GLY519 
 GLU520  THR521  MET522  VAL523  GLU524  VAL525  GLY526  ALA527  PRO528  PHE529 
 SER530  LEU531  LYS532  GLY533  LEU534  MET535  COH609 

> <Gold.Protein.RotatedAtoms>
   18.5990    7.1816    3.3421 H   0  0  0  0  0  0  0  0  0  0  0  0  # atno 1366 bound_to 1361
    4.5602   -9.1263    6.7168 H   0  0  0  0  0  0  0  0  0  0  0  0  # atno 2556 bound_to 2551
   -4.0907    0.1729    1.0092 H   0  0  0  0  0  0  0  0  0  0  0  0  # atno 2749 bound_to 2745
    2.1243   -2.4031    3.9209 H   0  0  0  0  0  0  0  0  0  0  0  0  # atno 5077 bound_to 5068
   12.3988   -1.3696    9.2178 H   0  0  0  0  0  0  0  0  0  0  0  0  # atno 5157 bound_to 5152
   15.6094    0.3799    5.0622 H   0  0  0  0  0  0  0  0  0  0  0  0  # atno 5185 bound_to 5176
    1.5387   -0.2877    2.8166 H   0  0  0  0  0  0  0  0  0  0  0  0  # atno 5712 bound_to 5703
    4.9325    4.9677    3.2497 H   0  0  0  0  0  0  0  0  0  0  0  0  # atno 8036 bound_to 8031
    1.2571   -1.1986    3.6791 LP  0  0  0  0  0  0  0  0  0  0  0  0  # atno 8267 bound_to 5068
    0.6835   -2.5923    4.3078 LP  0  0  0  0  0  0  0  0  0  0  0  0  # atno 8268 bound_to 5068
   12.7736   -2.8272    9.2128 LP  0  0  0  0  0  0  0  0  0  0  0  0  # atno 8279 bound_to 5152
   11.2309   -2.3096    9.3501 LP  0  0  0  0  0  0  0  0  0  0  0  0  # atno 8280 bound_to 5152
   15.1771   -0.9727    4.5697 LP  0  0  0  0  0  0  0  0  0  0  0  0  # atno 8281 bound_to 5176
   16.7353   -0.5998    4.8854 LP  0  0  0  0  0  0  0  0  0  0  0  0  # atno 8282 bound_to 5176
    2.7652    0.4754    2.4015 LP  0  0  0  0  0  0  0  0  0  0  0  0  # atno 8283 bound_to 5703
    2.7595   -1.1425    2.6228 LP  0  0  0  0  0  0  0  0  0  0  0  0  # atno 8284 bound_to 5703
    6.3305    4.8172    3.7814 LP  0  0  0  0  0  0  0  0  0  0  0  0  # atno 8309 bound_to 8031
    5.3633    3.5423    3.4560 LP  0  0  0  0  0  0  0  0  0  0  0  0  # atno 8310 bound_to 8031
   -2.8116   -0.6190    1.0055 LP  0  0  0  0  0  0  0  0  0  0  0  0  # atno 8323 bound_to 2745
   -3.5001   -0.0410   -0.3578 LP  0  0  0  0  0  0  0  0  0  0  0  0  # atno 8324 bound_to 2745
   18.4575    6.5668    1.9761 LP  0  0  0  0  0  0  0  0  0  0  0  0  # atno 8335 bound_to 1361
   17.4913    7.7698    2.5109 LP  0  0  0  0  0  0  0  0  0  0  0  0  # atno 8336 bound_to 1361
    5.2653  -10.3118    7.3182 LP  0  0  0  0  0  0  0  0  0  0  0  0  # atno 8342 bound_to 2551
    4.8098   -9.0126    8.1963 LP  0  0  0  0  0  0  0  0  0  0  0  0  # atno 8343 bound_to 2551

