
N12|LMW3_p|sdf|223|dock5
  -GOLD-   61122 6323D 1   1.00000     0.00000

 35 37  0  0  0  0  0  0  0  0  2 V2000
    8.5122   -0.4644    4.3104 S   0  0  0  0  0  0  0  0  0  0  0  0
    8.7142   -0.9239    5.6671 O   0  0  0  0  0  0  0  0  0  0  0  0
    7.1982   -0.4340    3.7029 O   0  0  0  0  0  0  0  0  0  0  0  0
    9.5499   -1.3482    3.2741 N   0  0  0  0  0  0  0  0  0  0  0  0
    9.2064    1.1478    4.1888 C   0  0  0  0  0  0  0  0  0  0  0  0
   10.9387   -1.2070    3.6596 C   0  0  0  0  0  0  0  0  0  0  0  0
    9.2742   -1.1739    1.8245 C   0  0  0  0  0  0  0  0  0  0  0  0
   10.5910    1.2345    4.0138 C   0  0  0  0  0  0  0  0  0  0  0  0
    8.3810    2.2752    4.2229 C   0  0  0  0  0  0  0  0  0  0  0  0
   11.4279    0.0147    3.9686 C   0  0  0  0  0  0  0  0  0  0  0  0
   11.8117   -2.4306    3.6340 C   0  0  0  0  0  0  0  0  0  0  0  0
   11.1488    2.5159    3.9059 C   0  0  0  0  0  0  0  0  0  0  0  0
    8.9572    3.5367    4.1038 C   0  0  0  0  0  0  0  0  0  0  0  0
   12.7617    0.2422    4.2730 O   0  5  0  0  0  0  0  0  0  0  0  0
   13.0072   -2.3383    3.9006 O   0  0  0  0  0  0  0  0  0  0  0  0
   11.1221   -3.5619    3.2911 N   0  0  0  0  0  0  0  0  0  0  0  0
   10.3387    3.6569    3.9490 C   0  0  0  0  0  0  0  0  0  0  0  0
   11.5957   -4.8611    3.1356 C   0  0  0  0  0  0  0  0  0  0  0  0
   12.9330   -4.9259    2.9593 N   0  0  0  0  0  0  0  0  0  0  0  0
   10.7898   -5.9909    3.1534 C   0  0  0  0  0  0  0  0  0  0  0  0
   13.4825   -6.1498    2.7939 C   0  0  0  0  0  0  0  0  0  0  0  0
   11.3831   -7.2414    2.9827 C   0  0  0  0  0  0  0  0  0  0  0  0
   12.7563   -7.3266    2.7988 C   0  0  0  0  0  0  0  0  0  0  0  0
    8.2766   -1.4958    1.6099 H   0  0  0  0  0  0  0  0  0  0  0  0
    9.9675   -1.7585    1.2568 H   0  0  0  0  0  0  0  0  0  0  0  0
    9.3799   -0.1417    1.5630 H   0  0  0  0  0  0  0  0  0  0  0  0
    7.3601    2.1740    4.3346 H   0  0  0  0  0  0  0  0  0  0  0  0
   12.1694    2.6196    3.7931 H   0  0  0  0  0  0  0  0  0  0  0  0
    8.3642    4.3809    4.1299 H   0  0  0  0  0  0  0  0  0  0  0  0
   10.1581   -3.4397    3.1327 H   0  0  0  0  0  0  0  0  0  0  0  0
   10.7659    4.5926    3.8657 H   0  0  0  0  0  0  0  0  0  0  0  0
    9.7704   -5.9072    3.2906 H   0  0  0  0  0  0  0  0  0  0  0  0
   14.5035   -6.2095    2.6560 H   0  0  0  0  0  0  0  0  0  0  0  0
   10.8057   -8.0968    2.9929 H   0  0  0  0  0  0  0  0  0  0  0  0
   13.2206   -8.2392    2.6699 H   0  0  0  0  0  0  0  0  0  0  0  0
  1  2  2  0  0  0  0
  1  3  2  0  0  0  0
  1  4  1  0  0  0  0
  1  5  1  0  0  0  0
  4  6  1  0  0  0  0
  4  7  1  0  0  0  0
  5  8  2  0  0  0  0
  5  9  1  0  0  0  0
  6 10  2  0  0  0  0
  6 11  1  0  0  0  0
  7 24  1  0  0  0  0
  7 25  1  0  0  0  0
  7 26  1  0  0  0  0
  8 12  1  0  0  0  0
  8 10  1  0  0  0  0
  9 13  2  0  0  0  0
  9 27  1  0  0  0  0
 10 14  1  0  0  0  0
 11 15  2  0  0  0  0
 11 16  1  0  0  0  0
 12 17  2  0  0  0  0
 12 28  1  0  0  0  0
 13 17  1  0  0  0  0
 13 29  1  0  0  0  0
 16 18  1  0  0  0  0
 16 30  1  0  0  0  0
 17 31  1  0  0  0  0
 18 19  2  0  0  0  0
 18 20  1  0  0  0  0
 19 21  1  0  0  0  0
 20 22  2  0  0  0  0
 20 32  1  0  0  0  0
 21 23  2  0  0  0  0
 21 33  1  0  0  0  0
 22 23  1  0  0  0  0
 22 34  1  0  0  0  0
 23 35  1  0  0  0  0
M  CHG  1  14  -1
M  END
>  <Code-name>
N12

>  <Compound>
Piroxicam

>  <Specie>


>  <Reference>


>  <Organism>
COX12

>  <Smiles>
CN(C(C(Nc1ncccc1)=O)=C(c1c2cccc1)O)S2(=O)=O

>  <MMFF94 Energy>
-15.436

>  <Total Molweight>
331.351

>  <Molweight>
331.351

>  <Monoisotopic Mass>
331.062677

>  <cLogP>
1.2063

>  <cLogS>
-2.184

>  <H-Acceptors>
7

>  <H-Donors>
2

>  <Total Surface Area>
227.9

>  <Relative PSA>
0.3541

>  <Polar Surface Area>
107.98

>  <Druglikeness>
5.6003

>  <Mutagenic>
none

>  <Tumorigenic>
none

>  <Reproductive Effective>
none

>  <Irritant>
none

>  <Nasty Functions>


>  <Shape Index>
0.52174

>  <Molecular Flexibility>
0.18597

>  <Molecular Complexity>
0.91193

>  <Fragments>
1

>  <Non-H Atoms>
23

>  <Non-C/H Atoms>
8

>  <Metal-Atoms>
0

>  <Electronegative Atoms>
8

>  <Stereo Centers>
0

>  <Rotatable Bonds>
2

>  <Rings Closures>
3

>  <Small Rings>
3

>  <Aromatic Rings>
2

>  <Aromatic Atoms>
12

>  <sp3-Atoms>
3

>  <Symmetric atoms>
1

>  <Amides>
2

>  <Amines>
0

>  <Alkyl-Amines>
0

>  <Aromatic Amines>
0

>  <Aromatic Nitrogens>
1

>  <Basic Nitrogens>
0

>  <Acidic Oxygens>
0

>  <Stereo Configuration>


> <Gold.Version>
5.8.1

> <Gold.Id.Protein>
ID_2|Prot_COX2_5IKQ_Alig|mol2

> <Gold.Goldscore.Fitness>
56.3640

> <Gold.Goldscore.Internal.Vdw>
-1.2821

> <Gold.Goldscore.Internal.Torsion>
-0.7304

> <Gold.Goldscore.External.Vdw>
37.9425

> <Gold.Goldscore.Internal.HBond>
0.0000

> <Gold.Goldscore.External.HBond>
5.5232

> <Gold.Goldscore.Internal.Correction>
-0.6823

> <Gold.Goldscore.Hbonds>
donor molecule, donor type, donor heavy atom, donor atom, acceptor molecule, acceptor atom, score
      P1  H  5176  5185       L1    14  0.92

> <Gold.Goldscore.Internal.Vdw.Weighted>
-1.2821

> <Gold.Goldscore.Internal.Torsion.Weighted>
-0.7304

> <Gold.Goldscore.External.Vdw.Weighted>
52.1710

> <Gold.Goldscore.Internal.HBond.Weighted>
0.0000

> <Gold.Goldscore.External.HBond.Weighted>
5.5232

> <Gold.Goldscore.Internal.Correction.Weighted>
-0.6823

> <Gold.Protein.RotatedTorsions>
[ 5077 5068 5067 5065 ] final  -45.45 input  179.94 | X-H torsion
[ 5157 5152 5151 5148 ] final    2.10 input -179.92 | X-H torsion
[ 5185 5176 5175 5173 ] final  115.04 input -179.99 | X-H torsion
[ 5712 5703 5702 5700 ] final  123.66 input  180.00 | X-H torsion
[ 8036 8031 8030 8027 ] final  164.31 input -179.94 | X-H torsion
[ 2749 2745 2743 2740 ] final   70.20 input  -60.05 | X-H torsion
[ 1366 1361 1360 1357 ] final   14.89 input  -60.09 | X-H torsion
[ 2556 2551 2550 2547 ] final  101.17 input   59.97 | X-H torsion

> <Gold.Protein.ActiveResidues>
 PRO86   VAL89   HIS90   LEU93   THR94   ILE112  MET113  TYR115  VAL116  LEU117 
 THR118  SER119  ARG120  SER121  LEU123  ILE124  GLN192  SER194  PHE198  PHE201 
 ALA202  GLN203  PHE205  THR206  PHE209  PHE210  VAL228  ILE341  ILE343  VAL344 
 ILE345  GLU346  ASP347  TYR348  VAL349  GLN350  HIS351  LEU352  SER353  GLY354 
 TYR355  PHE357  LEU359  LYS360  GLU380  PHE381  ASN382  THR383  LEU384  TYR385 
 HIS386  TRP387  LEU390  VAL434  LEU507  ARG513  ALA516  ILE517  PHE518  GLY519 
 GLU520  THR521  MET522  VAL523  GLU524  VAL525  GLY526  ALA527  PRO528  PHE529 
 SER530  LEU531  LYS532  GLY533  LEU534  MET535  COH609 

> <Gold.Protein.RotatedAtoms>
   17.6588    7.5206    2.2041 H   0  0  0  0  0  0  0  0  0  0  0  0  # atno 1366 bound_to 1361
    5.0315  -10.0719    6.8954 H   0  0  0  0  0  0  0  0  0  0  0  0  # atno 2556 bound_to 2551
   -3.9690    0.2270    0.0567 H   0  0  0  0  0  0  0  0  0  0  0  0  # atno 2749 bound_to 2745
    1.4389   -2.8245    4.2431 H   0  0  0  0  0  0  0  0  0  0  0  0  # atno 5077 bound_to 5068
   11.9261   -2.8782    9.2398 H   0  0  0  0  0  0  0  0  0  0  0  0  # atno 5157 bound_to 5152
   15.0488   -0.2231    4.8138 H   0  0  0  0  0  0  0  0  0  0  0  0  # atno 5185 bound_to 5176
    3.0526   -0.3640    2.3847 H   0  0  0  0  0  0  0  0  0  0  0  0  # atno 5712 bound_to 5703
    5.5769    3.6896    3.4824 H   0  0  0  0  0  0  0  0  0  0  0  0  # atno 8036 bound_to 8031
    2.1733   -1.6764    3.6074 LP  0  0  0  0  0  0  0  0  0  0  0  0  # atno 8267 bound_to 5068
    0.5880   -1.6099    3.9936 LP  0  0  0  0  0  0  0  0  0  0  0  0  # atno 8268 bound_to 5068
   11.5044   -1.4368    9.3373 LP  0  0  0  0  0  0  0  0  0  0  0  0  # atno 8279 bound_to 5152
   13.0654   -1.8957    9.1992 LP  0  0  0  0  0  0  0  0  0  0  0  0  # atno 8280 bound_to 5152
   16.1798   -1.1973    4.6393 LP  0  0  0  0  0  0  0  0  0  0  0  0  # atno 8281 bound_to 5176
   16.4058    0.3488    5.1140 LP  0  0  0  0  0  0  0  0  0  0  0  0  # atno 8282 bound_to 5176
    1.8393   -1.0962    2.8854 LP  0  0  0  0  0  0  0  0  0  0  0  0  # atno 8283 bound_to 5703
    1.8685    0.5206    2.6573 LP  0  0  0  0  0  0  0  0  0  0  0  0  # atno 8284 bound_to 5703
    4.6916    4.8744    3.2134 LP  0  0  0  0  0  0  0  0  0  0  0  0  # atno 8309 bound_to 8031
    6.2290    5.0185    3.7447 LP  0  0  0  0  0  0  0  0  0  0  0  0  # atno 8310 bound_to 8031
   -3.7370   -0.1463    1.4956 LP  0  0  0  0  0  0  0  0  0  0  0  0  # atno 8323 bound_to 2745
   -2.7205   -0.5785    0.2929 LP  0  0  0  0  0  0  0  0  0  0  0  0  # atno 8324 bound_to 2745
   18.3437    7.4625    3.5426 LP  0  0  0  0  0  0  0  0  0  0  0  0  # atno 8335 bound_to 1361
   18.7298    6.4686    2.3058 LP  0  0  0  0  0  0  0  0  0  0  0  0  # atno 8336 bound_to 1361
    5.0559   -9.5064    8.2896 LP  0  0  0  0  0  0  0  0  0  0  0  0  # atno 8342 bound_to 2551
    4.4554   -8.6867    7.0113 LP  0  0  0  0  0  0  0  0  0  0  0  0  # atno 8343 bound_to 2551

