
022|LMW3_p|sdf|22|dock4
  -GOLD-   6 722 4 33D 1   1.00000     0.00000

 81 84  0  0  0  0  0  0  0  0  2 V2000
   12.2607    4.4094    6.9773 O   0  0  0  0  0  0  0  0  0  0  0  0
   12.9645    3.8988    6.1224 C   0  0  0  0  0  0  0  0  0  0  0  0
   13.2266    4.5484    4.9727 O   0  5  0  0  0  0  0  0  0  0  0  0
   13.6100    2.5313    6.1797 C   0  0  1  0  0  0  0  0  0  0  0  0
   13.2942    1.7410    4.8843 C   0  0  2  0  0  0  0  0  0  0  0  0
   15.1294    2.7263    6.3809 C   0  0  0  0  0  0  0  0  0  0  0  0
   11.8028    1.5415    4.4788 C   0  0  2  0  0  0  0  0  0  0  0  0
   13.8291    0.2809    4.9252 C   0  0  0  0  0  0  0  0  0  0  0  0
   15.8754    2.9571    5.0572 C   0  0  0  0  0  0  0  0  0  0  0  0
   11.9139    0.3977    3.4114 C   0  0  1  0  0  0  0  0  0  0  0  0
   11.1027    2.7393    3.8135 C   0  0  0  0  0  0  0  0  0  0  0  0
   10.9709    1.1234    5.7364 C   0  0  0  0  0  0  0  0  0  0  0  0
   12.8294   -0.5991    4.1485 C   0  0  0  0  0  0  0  0  0  0  0  0
   17.3384    3.2964    5.2785 C   0  0  0  0  0  0  0  0  0  0  0  0
   10.5210   -0.0496    2.9701 C   0  0  0  0  0  0  0  0  0  0  0  0
   12.6551    0.7950    2.0937 C   0  0  0  0  0  0  0  0  0  0  0  0
    9.8325    2.3033    3.1150 C   0  0  0  0  0  0  0  0  0  0  0  0
   17.9238    2.9947    6.4515 C   0  0  0  0  0  0  0  0  0  0  0  0
   18.0541    3.9913    4.1224 C   0  0  0  0  0  0  0  0  0  0  0  0
    9.5234    1.0290    2.7710 C   0  0  0  0  0  0  0  0  0  0  0  0
   10.2255   -1.3376    2.7224 C   0  0  0  0  0  0  0  0  0  0  0  0
   19.2057    3.1861    3.5070 C   0  0  0  0  0  0  0  0  0  0  0  0
   18.5626    5.3700    4.5549 C   0  0  0  0  0  0  0  0  0  0  0  0
    8.1144    0.6188    2.2428 C   0  0  2  0  0  0  0  0  0  0  0  0
    8.9427   -1.7979    2.1022 C   0  0  0  0  0  0  0  0  0  0  0  0
    8.2582   -0.6525    1.3274 C   0  0  1  0  0  0  0  0  0  0  0  0
    7.4606    1.7529    1.4067 C   0  0  0  0  0  0  0  0  0  0  0  0
    7.2609    0.3837    3.5145 C   0  0  0  0  0  0  0  0  0  0  0  0
    6.9884   -1.0981    0.5057 C   0  0  0  0  0  0  0  0  0  0  0  0
    6.1805    1.3360    0.6935 C   0  0  0  0  0  0  0  0  0  0  0  0
    6.4048    0.1440   -0.2280 C   0  0  2  0  0  0  0  0  0  0  0  0
    7.4208   -2.1255   -0.5791 C   0  0  0  0  0  0  0  0  0  0  0  0
    5.9059   -1.8081    1.3457 C   0  0  0  0  0  0  0  0  0  0  0  0
    5.1547   -0.1476   -0.8511 O   0  0  0  0  0  0  0  0  0  0  0  0
   13.2217    1.9599    6.9967 H   0  0  0  0  0  0  0  0  0  0  0  0
   13.7723    2.3911    4.1817 H   0  0  0  0  0  0  0  0  0  0  0  0
   15.5279    1.8515    6.8509 H   0  0  0  0  0  0  0  0  0  0  0  0
   15.2672    3.5972    6.9870 H   0  0  0  0  0  0  0  0  0  0  0  0
   13.9003   -0.0541    5.9388 H   0  0  0  0  0  0  0  0  0  0  0  0
   14.8032    0.2233    4.4860 H   0  0  0  0  0  0  0  0  0  0  0  0
   15.4088    3.7659    4.5346 H   0  0  0  0  0  0  0  0  0  0  0  0
   15.8292    2.0508    4.4902 H   0  0  0  0  0  0  0  0  0  0  0  0
   11.7644    3.1773    3.0956 H   0  0  0  0  0  0  0  0  0  0  0  0
   10.8489    3.4508    4.5712 H   0  0  0  0  0  0  0  0  0  0  0  0
   10.8663    1.9638    6.3903 H   0  0  0  0  0  0  0  0  0  0  0  0
   11.4751    0.3320    6.2506 H   0  0  0  0  0  0  0  0  0  0  0  0
   10.0025    0.7885    5.4283 H   0  0  0  0  0  0  0  0  0  0  0  0
   12.2605   -1.2064    4.8212 H   0  0  0  0  0  0  0  0  0  0  0  0
   13.3212   -1.2690    3.4744 H   0  0  0  0  0  0  0  0  0  0  0  0
   11.9948    0.6694    1.2613 H   0  0  0  0  0  0  0  0  0  0  0  0
   13.5140    0.1698    1.9653 H   0  0  0  0  0  0  0  0  0  0  0  0
   12.9641    1.8178    2.1528 H   0  0  0  0  0  0  0  0  0  0  0  0
    9.1450    3.0367    2.8815 H   0  0  0  0  0  0  0  0  0  0  0  0
   17.3817    2.5237    7.1926 H   0  0  0  0  0  0  0  0  0  0  0  0
   18.9150    3.2343    6.6102 H   0  0  0  0  0  0  0  0  0  0  0  0
   17.3153    4.0873    3.3544 H   0  0  0  0  0  0  0  0  0  0  0  0
   10.9255   -2.0525    2.9751 H   0  0  0  0  0  0  0  0  0  0  0  0
   20.0308    3.1661    4.1879 H   0  0  0  0  0  0  0  0  0  0  0  0
   19.5112    3.6448    2.5898 H   0  0  0  0  0  0  0  0  0  0  0  0
   18.8783    2.1859    3.3139 H   0  0  0  0  0  0  0  0  0  0  0  0
   17.7302    6.0228    4.7159 H   0  0  0  0  0  0  0  0  0  0  0  0
   19.1905    5.7749    3.7890 H   0  0  0  0  0  0  0  0  0  0  0  0
   19.1223    5.2754    5.4619 H   0  0  0  0  0  0  0  0  0  0  0  0
    8.2847   -2.1402    2.8734 H   0  0  0  0  0  0  0  0  0  0  0  0
    9.1616   -2.5892    1.4160 H   0  0  0  0  0  0  0  0  0  0  0  0
    8.9008   -0.3450    0.5291 H   0  0  0  0  0  0  0  0  0  0  0  0
    8.1658    2.0778    0.6704 H   0  0  0  0  0  0  0  0  0  0  0  0
    7.1945    2.5300    2.0926 H   0  0  0  0  0  0  0  0  0  0  0  0
    7.5967   -0.5028    4.0106 H   0  0  0  0  0  0  0  0  0  0  0  0
    6.2333    0.2705    3.2384 H   0  0  0  0  0  0  0  0  0  0  0  0
    7.3631    1.2213    4.1725 H   0  0  0  0  0  0  0  0  0  0  0  0
    5.8246    2.1605    0.1118 H   0  0  0  0  0  0  0  0  0  0  0  0
    5.4656    1.0501    1.4365 H   0  0  0  0  0  0  0  0  0  0  0  0
    7.1450    0.3952   -0.9587 H   0  0  0  0  0  0  0  0  0  0  0  0
    8.2546   -1.7373   -1.1259 H   0  0  0  0  0  0  0  0  0  0  0  0
    6.6054   -2.3011   -1.2493 H   0  0  0  0  0  0  0  0  0  0  0  0
    7.7000   -3.0450   -0.1084 H   0  0  0  0  0  0  0  0  0  0  0  0
    6.0596   -1.5915    2.3822 H   0  0  0  0  0  0  0  0  0  0  0  0
    5.9689   -2.8647    1.1890 H   0  0  0  0  0  0  0  0  0  0  0  0
    4.9386   -1.4604    1.0483 H   0  0  0  0  0  0  0  0  0  0  0  0
    4.9337    0.5585   -1.4785 H   0  0  0  0  0  0  0  0  0  0  0  0
  1  2  2  0  0  0  0
  2  3  1  0  0  0  0
  2  4  1  0  0  0  0
  4  5  1  0  0  0  0
  4  6  1  0  0  0  0
  4 35  1  0  0  0  0
  5  7  1  0  0  0  0
  5  8  1  0  0  0  0
  5 36  1  0  0  0  0
  6  9  1  0  0  0  0
  6 37  1  0  0  0  0
  6 38  1  0  0  0  0
  7 10  1  0  0  0  0
  7 11  1  0  0  0  0
  7 12  1  0  0  0  0
  8 13  1  0  0  0  0
  8 39  1  0  0  0  0
  8 40  1  0  0  0  0
  9 14  1  0  0  0  0
  9 41  1  0  0  0  0
  9 42  1  0  0  0  0
 10 15  1  0  0  0  0
 10 16  1  0  0  0  0
 10 13  1  0  0  0  0
 11 17  1  0  0  0  0
 11 43  1  0  0  0  0
 11 44  1  0  0  0  0
 12 45  1  0  0  0  0
 12 46  1  0  0  0  0
 12 47  1  0  0  0  0
 13 48  1  0  0  0  0
 13 49  1  0  0  0  0
 14 18  2  0  0  0  0
 14 19  1  0  0  0  0
 15 20  1  0  0  0  0
 15 21  2  0  0  0  0
 16 50  1  0  0  0  0
 16 51  1  0  0  0  0
 16 52  1  0  0  0  0
 17 20  2  0  0  0  0
 17 53  1  0  0  0  0
 18 54  1  0  0  0  0
 18 55  1  0  0  0  0
 19 22  1  0  0  0  0
 19 23  1  0  0  0  0
 19 56  1  0  0  0  0
 20 24  1  0  0  0  0
 21 25  1  0  0  0  0
 21 57  1  0  0  0  0
 22 58  1  0  0  0  0
 22 59  1  0  0  0  0
 22 60  1  0  0  0  0
 23 61  1  0  0  0  0
 23 62  1  0  0  0  0
 23 63  1  0  0  0  0
 24 26  1  0  0  0  0
 24 27  1  0  0  0  0
 24 28  1  0  0  0  0
 25 26  1  0  0  0  0
 25 64  1  0  0  0  0
 25 65  1  0  0  0  0
 26 29  1  0  0  0  0
 26 66  1  0  0  0  0
 27 30  1  0  0  0  0
 27 67  1  0  0  0  0
 27 68  1  0  0  0  0
 28 69  1  0  0  0  0
 28 70  1  0  0  0  0
 28 71  1  0  0  0  0
 29 31  1  0  0  0  0
 29 32  1  0  0  0  0
 29 33  1  0  0  0  0
 30 31  1  0  0  0  0
 30 72  1  0  0  0  0
 30 73  1  0  0  0  0
 31 34  1  0  0  0  0
 31 74  1  0  0  0  0
 32 75  1  0  0  0  0
 32 76  1  0  0  0  0
 32 77  1  0  0  0  0
 33 78  1  0  0  0  0
 33 79  1  0  0  0  0
 33 80  1  0  0  0  0
 34 81  1  0  0  0  0
M  CHG  1   3  -1
M  END
>  <Code-name>
022

>  <Compound>
Dehydroeburicoic acid

>  <Specie>
Antrodia cinnamomea

>  <Reference>
Huang, H. T., Wang, S. L., Nguyen, V. B., & Kuo, Y. H. (2018)

>  <Organism>
N/A

>  <Smiles>
CC(C)C(CC[C@H]([C@@H](CC1)[C@]2(C)[C@]1(C)C1=CC[C@@H](C(C)(C)[C@H](CC3)O)[C@@]3(C)C1=CC2)C(O)=O)=C

>  <MMFF94 Energy>
88.146

>  <Total Molweight>
468.719

>  <Molweight>
468.719

>  <Monoisotopic Mass>
468.360345

>  <cLogP>
7.1549

>  <cLogS>
-6.027

>  <H-Acceptors>
3

>  <H-Donors>
2

>  <Total Surface Area>
362.16

>  <Relative PSA>
0.10835

>  <Polar Surface Area>
57.53

>  <Druglikeness>
-6.5051

>  <Mutagenic>
none

>  <Tumorigenic>
none

>  <Reproductive Effective>
none

>  <Irritant>
none

>  <Nasty Functions>


>  <Shape Index>
0.47059

>  <Molecular Flexibility>
0.35316

>  <Molecular Complexity>
1.0054

>  <Fragments>
1

>  <Non-H Atoms>
34

>  <Non-C/H Atoms>
3

>  <Metal-Atoms>
0

>  <Electronegative Atoms>
3

>  <Stereo Centers>
7

>  <Rotatable Bonds>
6

>  <Rings Closures>
4

>  <Small Rings>
4

>  <Aromatic Rings>
0

>  <Aromatic Atoms>
0

>  <sp3-Atoms>
26

>  <Symmetric atoms>
2

>  <Amides>
0

>  <Amines>
0

>  <Alkyl-Amines>
0

>  <Aromatic Amines>
0

>  <Aromatic Nitrogens>
0

>  <Basic Nitrogens>
0

>  <Acidic Oxygens>
1

>  <Stereo Configuration>
this enantiomer

> <Gold.Version>
5.8.1

> <Gold.Id.Protein>
ID_2|Prot_COX2_5IKQ_Alig|mol2

> <Gold.Goldscore.Fitness>
-37.0962

> <Gold.Goldscore.Internal.Vdw>
-42.0510

> <Gold.Goldscore.Internal.Torsion>
-10.6231

> <Gold.Goldscore.External.Vdw>
-9.1209

> <Gold.Goldscore.Internal.HBond>
0.0000

> <Gold.Goldscore.External.HBond>
0.0000

> <Gold.Goldscore.Internal.Correction>
-28.1192

> <Gold.Goldscore.Internal.Vdw.Weighted>
-42.0510

> <Gold.Goldscore.Internal.Torsion.Weighted>
-10.6231

> <Gold.Goldscore.External.Vdw.Weighted>
-12.5413

> <Gold.Goldscore.Internal.HBond.Weighted>
0.0000

> <Gold.Goldscore.External.HBond.Weighted>
0.0000

> <Gold.Goldscore.Internal.Correction.Weighted>
-28.1192

> <Gold.Protein.RotatedTorsions>
[ 5077 5068 5067 5065 ] final -167.81 input  179.94 | X-H torsion
[ 5157 5152 5151 5148 ] final  154.14 input -179.92 | X-H torsion
[ 5185 5176 5175 5173 ] final  -84.88 input -179.99 | X-H torsion
[ 5712 5703 5702 5700 ] final  150.27 input  180.00 | X-H torsion
[ 8036 8031 8030 8027 ] final  152.32 input -179.94 | X-H torsion
[ 2749 2745 2743 2740 ] final -115.21 input  -60.05 | X-H torsion
[ 1366 1361 1360 1357 ] final   49.23 input  -60.09 | X-H torsion
[ 2556 2551 2550 2547 ] final  -56.47 input   59.97 | X-H torsion

> <Gold.Protein.ActiveResidues>
 PRO86   VAL89   HIS90   LEU93   THR94   ILE112  MET113  TYR115  VAL116  LEU117 
 THR118  SER119  ARG120  SER121  LEU123  ILE124  GLN192  SER194  PHE198  PHE201 
 ALA202  GLN203  PHE205  THR206  PHE209  PHE210  VAL228  ILE341  ILE343  VAL344 
 ILE345  GLU346  ASP347  TYR348  VAL349  GLN350  HIS351  LEU352  SER353  GLY354 
 TYR355  PHE357  LEU359  LYS360  GLU380  PHE381  ASN382  THR383  LEU384  TYR385 
 HIS386  TRP387  LEU390  VAL434  LEU507  ARG513  ALA516  ILE517  PHE518  GLY519 
 GLU520  THR521  MET522  VAL523  GLU524  VAL525  GLY526  ALA527  PRO528  PHE529 
 SER530  LEU531  LYS532  GLY533  LEU534  MET535  COH609 

> <Gold.Protein.RotatedAtoms>
   17.8631    7.1920    1.9433 H   0  0  0  0  0  0  0  0  0  0  0  0  # atno 1366 bound_to 1361
    4.7617   -9.0706    8.0483 H   0  0  0  0  0  0  0  0  0  0  0  0  # atno 2556 bound_to 2551
   -2.9718   -0.4820    1.0533 H   0  0  0  0  0  0  0  0  0  0  0  0  # atno 2749 bound_to 2745
    2.0408   -1.7033    3.7010 H   0  0  0  0  0  0  0  0  0  0  0  0  # atno 5077 bound_to 5068
   12.6989   -1.5534    9.1901 H   0  0  0  0  0  0  0  0  0  0  0  0  # atno 5157 bound_to 5152
   16.5874   -0.2273    5.0185 H   0  0  0  0  0  0  0  0  0  0  0  0  # atno 5185 bound_to 5176
    2.9787   -0.0099    2.3582 H   0  0  0  0  0  0  0  0  0  0  0  0  # atno 5712 bound_to 5703
    5.4213    3.6923    3.4285 H   0  0  0  0  0  0  0  0  0  0  0  0  # atno 8036 bound_to 8031
    0.5702   -1.6431    4.0097 LP  0  0  0  0  0  0  0  0  0  0  0  0  # atno 8267 bound_to 5068
    1.4704   -2.9859    4.2405 LP  0  0  0  0  0  0  0  0  0  0  0  0  # atno 8268 bound_to 5068
   12.4046   -3.0285    9.2417 LP  0  0  0  0  0  0  0  0  0  0  0  0  # atno 8279 bound_to 5152
   11.2409   -1.8884    9.3543 LP  0  0  0  0  0  0  0  0  0  0  0  0  # atno 8280 bound_to 5152
   15.2021    0.3521    4.9539 LP  0  0  0  0  0  0  0  0  0  0  0  0  # atno 8281 bound_to 5176
   15.5361   -1.1955    4.5537 LP  0  0  0  0  0  0  0  0  0  0  0  0  # atno 8282 bound_to 5176
    2.2364   -1.2435    2.7894 LP  0  0  0  0  0  0  0  0  0  0  0  0  # atno 8283 bound_to 5703
    1.5601    0.2429    2.7851 LP  0  0  0  0  0  0  0  0  0  0  0  0  # atno 8284 bound_to 5703
    4.7880    5.0434    3.2455 LP  0  0  0  0  0  0  0  0  0  0  0  0  # atno 8309 bound_to 8031
    6.3193    4.8464    3.7773 LP  0  0  0  0  0  0  0  0  0  0  0  0  # atno 8310 bound_to 8031
   -3.3663   -0.1193   -0.3525 LP  0  0  0  0  0  0  0  0  0  0  0  0  # atno 8323 bound_to 2745
   -4.2855    0.2437    0.9475 LP  0  0  0  0  0  0  0  0  0  0  0  0  # atno 8324 bound_to 2745
   17.9243    7.7637    3.3338 LP  0  0  0  0  0  0  0  0  0  0  0  0  # atno 8335 bound_to 1361
   18.9048    6.5605    2.8265 LP  0  0  0  0  0  0  0  0  0  0  0  0  # atno 8336 bound_to 1361
    4.5617   -9.0812    6.5570 LP  0  0  0  0  0  0  0  0  0  0  0  0  # atno 8342 bound_to 2551
    5.2723  -10.3098    7.3645 LP  0  0  0  0  0  0  0  0  0  0  0  0  # atno 8343 bound_to 2551

