
025|LMW3_p|sdf|25|dock4
  -GOLD-   6 722 4103D 1   1.00000     0.00000

 37 40  0  0  0  0  0  0  0  0  1 V2000
    5.1091    0.4483    2.8344 O   0  0  0  0  0  0  0  0  0  0  0  0
    6.2322    0.7891    3.1641 C   0  0  0  0  0  0  0  0  0  0  0  0
    6.5716    2.0545    3.5477 O   0  0  0  0  0  0  0  0  0  0  0  0
    7.4244   -0.1164    3.1864 C   0  0  2  0  0  0  0  0  0  0  0  0
    7.9799    2.1549    3.7806 C   0  0  2  0  0  0  0  0  0  0  0  0
    8.5577    0.7749    3.6332 C   0  0  1  0  0  0  0  0  0  0  0  0
    7.7248   -1.1864    2.1326 C   0  0  2  0  0  0  0  0  0  0  0  0
    8.0890   -0.3253    4.5466 C   0  0  0  0  0  0  0  0  0  0  0  0
    8.2461    2.6513    5.0801 O   0  0  0  0  0  0  0  0  0  0  0  0
    9.8716    0.6368    2.9818 C   0  0  0  0  0  0  0  0  0  0  0  0
    8.9085   -0.8136    1.2098 C   0  0  2  0  0  0  0  0  0  0  0  0
    6.6116   -1.5236    1.1296 C   0  0  0  0  0  0  0  0  0  0  0  0
   10.0477   -0.0709    1.8524 C   0  0  0  0  0  0  0  0  0  0  0  0
   11.0613    1.3547    3.5254 C   0  0  0  0  0  0  0  0  0  0  0  0
    8.2402   -0.0050    0.0960 C   0  0  0  0  0  0  0  0  0  0  0  0
    6.9137   -0.7412   -0.1750 C   0  0  0  0  0  0  0  0  0  0  0  0
   12.1952    1.0566    3.1618 O   0  0  0  0  0  0  0  0  0  0  0  0
    5.7994    0.2533   -0.5180 C   0  0  0  0  0  0  0  0  0  0  0  0
    7.0746   -1.7192   -1.3519 C   0  0  0  0  0  0  0  0  0  0  0  0
    8.4191    2.8346    3.0807 H   0  0  0  0  0  0  0  0  0  0  0  0
    7.9046   -2.0181    2.7813 H   0  0  0  0  0  0  0  0  0  0  0  0
    8.7075   -1.1821    4.7149 H   0  0  0  0  0  0  0  0  0  0  0  0
    7.7456   -0.3760    5.5587 H   0  0  0  0  0  0  0  0  0  0  0  0
    7.8670    3.5396    5.1707 H   0  0  0  0  0  0  0  0  0  0  0  0
    9.4114   -1.6969    0.8752 H   0  0  0  0  0  0  0  0  0  0  0  0
    5.6619   -1.2265    1.5231 H   0  0  0  0  0  0  0  0  0  0  0  0
    6.5778   -2.5762    0.9408 H   0  0  0  0  0  0  0  0  0  0  0  0
   10.9831   -0.1053    1.4178 H   0  0  0  0  0  0  0  0  0  0  0  0
   10.9293    2.1109    4.2152 H   0  0  0  0  0  0  0  0  0  0  0  0
    8.8521    0.0068   -0.7817 H   0  0  0  0  0  0  0  0  0  0  0  0
    8.0884    1.0177    0.3716 H   0  0  0  0  0  0  0  0  0  0  0  0
    5.6902    0.9561    0.2813 H   0  0  0  0  0  0  0  0  0  0  0  0
    4.8796   -0.2756   -0.6562 H   0  0  0  0  0  0  0  0  0  0  0  0
    6.0505    0.7735   -1.4186 H   0  0  0  0  0  0  0  0  0  0  0  0
    7.2248   -1.1673   -2.2563 H   0  0  0  0  0  0  0  0  0  0  0  0
    6.1920   -2.3175   -1.4417 H   0  0  0  0  0  0  0  0  0  0  0  0
    7.9187   -2.3528   -1.1764 H   0  0  0  0  0  0  0  0  0  0  0  0
  1  2  2  0  0  0  0
  2  3  1  0  0  0  0
  3  5  1  0  0  0  0
  4  2  1  0  0  0  0
  4  6  1  0  0  0  0
  4  7  1  0  0  0  0
  4  8  1  0  0  0  0
  5  9  1  0  0  0  0
  5  6  1  0  0  0  0
  5 20  1  0  0  0  0
  6 10  1  0  0  0  0
  6  8  1  0  0  0  0
  7 11  1  0  0  0  0
  7 12  1  0  0  0  0
  7 21  1  0  0  0  0
  8 22  1  0  0  0  0
  8 23  1  0  0  0  0
  9 24  1  0  0  0  0
 10 13  2  0  0  0  0
 10 14  1  0  0  0  0
 11 15  1  0  0  0  0
 11 13  1  0  0  0  0
 11 25  1  0  0  0  0
 12 16  1  0  0  0  0
 12 26  1  0  0  0  0
 12 27  1  0  0  0  0
 13 28  1  0  0  0  0
 14 17  2  0  0  0  0
 14 29  1  0  0  0  0
 15 16  1  0  0  0  0
 15 30  1  0  0  0  0
 15 31  1  0  0  0  0
 16 18  1  0  0  0  0
 16 19  1  0  0  0  0
 18 32  1  0  0  0  0
 18 33  1  0  0  0  0
 18 34  1  0  0  0  0
 19 35  1  0  0  0  0
 19 36  1  0  0  0  0
 19 37  1  0  0  0  0
M  END
>  <Code-name>
025

>  <Compound>
Ácido Marásmico

>  <Specie>
Marusmius conigenus,

>  <Reference>
Arnone, 1997

>  <Organism>
Cytotoxic Activity

>  <Smiles>
CC(C)(C[C@@H]1[C@@](C2)([C@]22[C@H](O)O3)C3=O)C[C@H]1C=C2C=O

>  <MMFF94 Energy>
42.18

>  <Total Molweight>
262.304

>  <Molweight>
262.304

>  <Monoisotopic Mass>
262.120510

>  <cLogP>
0.8005

>  <cLogS>
-2.52

>  <H-Acceptors>
4

>  <H-Donors>
1

>  <Total Surface Area>
172.38

>  <Relative PSA>
0.2853

>  <Polar Surface Area>
63.6

>  <Druglikeness>
-2.5475

>  <Mutagenic>
high

>  <Tumorigenic>
none

>  <Reproductive Effective>
high

>  <Irritant>
high

>  <Nasty Functions>


>  <Shape Index>
0.42105

>  <Molecular Flexibility>
0.19024

>  <Molecular Complexity>
0.98611

>  <Fragments>
1

>  <Non-H Atoms>
19

>  <Non-C/H Atoms>
4

>  <Metal-Atoms>
0

>  <Electronegative Atoms>
4

>  <Stereo Centers>
5

>  <Rotatable Bonds>
1

>  <Rings Closures>
4

>  <Small Rings>
6

>  <Aromatic Rings>
0

>  <Aromatic Atoms>
0

>  <sp3-Atoms>
13

>  <Symmetric atoms>
1

>  <Amides>
0

>  <Amines>
0

>  <Alkyl-Amines>
0

>  <Aromatic Amines>
0

>  <Aromatic Nitrogens>
0

>  <Basic Nitrogens>
0

>  <Acidic Oxygens>
0

>  <Stereo Configuration>
this enantiomer

> <Gold.Version>
5.8.1

> <Gold.Id.Protein>
ID_2|Prot_COX2_5IKQ_Alig|mol2

> <Gold.Goldscore.Fitness>
43.8207

> <Gold.Goldscore.Internal.Vdw>
-1.6018

> <Gold.Goldscore.Internal.Torsion>
-0.4987

> <Gold.Goldscore.External.Vdw>
30.2168

> <Gold.Goldscore.Internal.HBond>
0.0000

> <Gold.Goldscore.External.HBond>
3.0216

> <Gold.Goldscore.Internal.Correction>
-1.3516

> <Gold.Goldscore.Hbonds>
donor molecule, donor type, donor heavy atom, donor atom, acceptor molecule, acceptor atom, score
      P1  H  5176  5185       L1    17  0.05
      P1  H  5703  5712       L1     1  1.00
      P1  H  8031  8036       L1     3  0.46

> <Gold.Goldscore.Internal.Vdw.Weighted>
-1.6018

> <Gold.Goldscore.Internal.Torsion.Weighted>
-0.4987

> <Gold.Goldscore.External.Vdw.Weighted>
41.5481

> <Gold.Goldscore.Internal.HBond.Weighted>
0.0000

> <Gold.Goldscore.External.HBond.Weighted>
3.0216

> <Gold.Goldscore.Internal.Correction.Weighted>
-1.3516

> <Gold.Protein.RotatedTorsions>
[ 5077 5068 5067 5065 ] final -174.12 input  179.94 | X-H torsion
[ 5157 5152 5151 5148 ] final  159.95 input -179.92 | X-H torsion
[ 5185 5176 5175 5173 ] final  110.31 input -179.99 | X-H torsion
[ 5712 5703 5702 5700 ] final  135.18 input  180.00 | X-H torsion
[ 8036 8031 8030 8027 ] final -178.24 input -179.94 | X-H torsion
[ 2749 2745 2743 2740 ] final   71.22 input  -60.05 | X-H torsion
[ 1366 1361 1360 1357 ] final   71.40 input  -60.09 | X-H torsion
[ 2556 2551 2550 2547 ] final  118.03 input   59.97 | X-H torsion

> <Gold.Protein.ActiveResidues>
 PRO86   VAL89   HIS90   LEU93   THR94   ILE112  MET113  TYR115  VAL116  LEU117 
 THR118  SER119  ARG120  SER121  LEU123  ILE124  GLN192  SER194  PHE198  PHE201 
 ALA202  GLN203  PHE205  THR206  PHE209  PHE210  VAL228  ILE341  ILE343  VAL344 
 ILE345  GLU346  ASP347  TYR348  VAL349  GLN350  HIS351  LEU352  SER353  GLY354 
 TYR355  PHE357  LEU359  LYS360  GLU380  PHE381  ASN382  THR383  LEU384  TYR385 
 HIS386  TRP387  LEU390  VAL434  LEU507  ARG513  ALA516  ILE517  PHE518  GLY519 
 GLU520  THR521  MET522  VAL523  GLU524  VAL525  GLY526  ALA527  PRO528  PHE529 
 SER530  LEU531  LYS532  GLY533  LEU534  MET535  COH609 

> <Gold.Protein.RotatedAtoms>
   18.0691    6.9723    1.9026 H   0  0  0  0  0  0  0  0  0  0  0  0  # atno 1366 bound_to 1361
    4.9387   -9.9311    6.7365 H   0  0  0  0  0  0  0  0  0  0  0  0  # atno 2556 bound_to 2551
   -3.9602    0.2233    0.0465 H   0  0  0  0  0  0  0  0  0  0  0  0  # atno 2749 bound_to 2745
    1.9891   -1.6342    3.6905 H   0  0  0  0  0  0  0  0  0  0  0  0  # atno 5077 bound_to 5068
   12.6391   -1.5005    9.1959 H   0  0  0  0  0  0  0  0  0  0  0  0  # atno 5157 bound_to 5152
   15.0424   -0.2850    4.7952 H   0  0  0  0  0  0  0  0  0  0  0  0  # atno 5185 bound_to 5176
    3.0401   -0.2073    2.3671 H   0  0  0  0  0  0  0  0  0  0  0  0  # atno 5712 bound_to 5703
    5.7966    3.7467    3.5581 H   0  0  0  0  0  0  0  0  0  0  0  0  # atno 8036 bound_to 8031
    0.5321   -1.7310    4.0499 LP  0  0  0  0  0  0  0  0  0  0  0  0  # atno 8267 bound_to 5068
    1.5705   -2.9807    4.2129 LP  0  0  0  0  0  0  0  0  0  0  0  0  # atno 8268 bound_to 5068
   12.4949   -2.9981    9.2344 LP  0  0  0  0  0  0  0  0  0  0  0  0  # atno 8279 bound_to 5152
   11.2221   -1.9821    9.3547 LP  0  0  0  0  0  0  0  0  0  0  0  0  # atno 8280 bound_to 5152
   16.2501   -1.1688    4.6569 LP  0  0  0  0  0  0  0  0  0  0  0  0  # atno 8281 bound_to 5176
   16.3432    0.3947    5.1188 LP  0  0  0  0  0  0  0  0  0  0  0  0  # atno 8282 bound_to 5176
    2.0036   -1.1830    2.8492 LP  0  0  0  0  0  0  0  0  0  0  0  0  # atno 8283 bound_to 5703
    1.7191    0.4194    2.7147 LP  0  0  0  0  0  0  0  0  0  0  0  0  # atno 8284 bound_to 5703
    4.6151    4.5996    3.1889 LP  0  0  0  0  0  0  0  0  0  0  0  0  # atno 8309 bound_to 8031
    6.0420    5.2249    3.6784 LP  0  0  0  0  0  0  0  0  0  0  0  0  # atno 8310 bound_to 8031
   -3.7510   -0.1377    1.4919 LP  0  0  0  0  0  0  0  0  0  0  0  0  # atno 8323 bound_to 2745
   -2.7171   -0.5826    0.3088 LP  0  0  0  0  0  0  0  0  0  0  0  0  # atno 8324 bound_to 2745
   17.6956    7.8505    3.0658 LP  0  0  0  0  0  0  0  0  0  0  0  0  # atno 8335 bound_to 1361
   18.8871    6.7365    3.1433 LP  0  0  0  0  0  0  0  0  0  0  0  0  # atno 8336 bound_to 1361
    5.1577   -9.7523    8.2144 LP  0  0  0  0  0  0  0  0  0  0  0  0  # atno 8342 bound_to 2551
    4.4646   -8.6092    7.2766 LP  0  0  0  0  0  0  0  0  0  0  0  0  # atno 8343 bound_to 2551

