
002|LMW3_p|sdf|2|dock4
  -GOLD-   6 62214583D 1   1.00000     0.00000

 83 86  0  0  0  0  0  0  0  0  2 V2000
    4.9834   -0.7635    2.5939 O   0  0  0  0  0  0  0  0  0  0  0  0
    6.1440   -0.7110    2.1840 C   0  0  0  0  0  0  0  0  0  0  0  0
    6.6844    0.4881    1.3972 C   0  0  0  0  0  0  0  0  0  0  0  0
    7.0617   -1.8950    2.3579 C   0  0  0  0  0  0  0  0  0  0  0  0
    8.1394    0.8592    1.9135 C   0  0  2  0  0  0  0  0  0  0  0  0
    6.6544    0.1265   -0.1047 C   0  0  0  0  0  0  0  0  0  0  0  0
    5.6951    1.6709    1.5547 C   0  0  0  0  0  0  0  0  0  0  0  0
    8.3859   -1.4689    2.9634 C   0  0  0  0  0  0  0  0  0  0  0  0
    9.1270   -0.3630    2.1677 C   0  0  2  0  0  0  0  0  0  0  0  0
    8.0747    1.7359    3.1846 C   0  0  0  0  0  0  0  0  0  0  0  0
   10.3884    0.0357    3.0019 C   0  0  0  0  0  0  0  0  0  0  0  0
    9.6245   -0.9176    0.8115 C   0  0  0  0  0  0  0  0  0  0  0  0
    9.4384    2.2857    3.5667 C   0  0  0  0  0  0  0  0  0  0  0  0
   10.5120    1.2415    3.6089 C   0  0  0  0  0  0  0  0  0  0  0  0
   11.5166   -1.0069    3.1124 C   0  0  0  0  0  0  0  0  0  0  0  0
   11.7379    1.5699    4.4538 C   0  0  1  0  0  0  0  0  0  0  0  0
   12.7890   -0.6176    3.8983 C   0  0  0  0  0  0  0  0  0  0  0  0
   13.0291    0.8965    3.8523 C   0  0  2  0  0  0  0  0  0  0  0  0
   12.1978    3.0320    4.5505 C   0  0  0  0  0  0  0  0  0  0  0  0
   11.3621    1.1113    5.9000 C   0  0  0  0  0  0  0  0  0  0  0  0
   14.1440    1.4751    4.7792 C   0  0  2  0  0  0  0  0  0  0  0  0
   13.3194    1.3193    2.3777 C   0  0  0  0  0  0  0  0  0  0  0  0
   13.6708    2.9466    4.9886 C   0  0  0  0  0  0  0  0  0  0  0  0
   15.6434    1.4064    4.3474 C   0  0  2  0  0  0  0  0  0  0  0  0
   16.1134   -0.0383    4.0957 C   0  0  0  0  0  0  0  0  0  0  0  0
   16.5732    2.1390    5.3608 C   0  0  0  0  0  0  0  0  0  0  0  0
   16.3156   -0.3654    2.6407 C   0  0  0  0  0  0  0  0  0  0  0  0
   17.9933    2.4300    4.8586 C   0  0  0  0  0  0  0  0  0  0  0  0
   16.9262    0.3090    1.8287 O   0  0  0  0  0  0  0  0  0  0  0  0
   15.7582   -1.5374    2.2837 O   0  5  0  0  0  0  0  0  0  0  0  0
   18.0152    3.6798    3.9705 C   0  0  0  0  0  0  0  0  0  0  0  0
   19.1989    3.7117    2.9857 C   0  0  0  0  0  0  0  0  0  0  0  0
   18.9014    2.8054    1.7885 C   0  0  0  0  0  0  0  0  0  0  0  0
   19.5146    5.1258    2.4959 C   0  0  0  0  0  0  0  0  0  0  0  0
    7.2410   -2.3426    1.4026 H   0  0  0  0  0  0  0  0  0  0  0  0
    6.5941   -2.5963    3.0171 H   0  0  0  0  0  0  0  0  0  0  0  0
    8.5613    1.4015    1.0932 H   0  0  0  0  0  0  0  0  0  0  0  0
    5.7419    0.4790   -0.5383 H   0  0  0  0  0  0  0  0  0  0  0  0
    6.7156   -0.9359   -0.2171 H   0  0  0  0  0  0  0  0  0  0  0  0
    7.4848    0.5859   -0.5989 H   0  0  0  0  0  0  0  0  0  0  0  0
    5.5434    1.8729    2.5945 H   0  0  0  0  0  0  0  0  0  0  0  0
    4.7602    1.4169    1.1006 H   0  0  0  0  0  0  0  0  0  0  0  0
    6.0988    2.5395    1.0778 H   0  0  0  0  0  0  0  0  0  0  0  0
    9.0222   -2.3276    3.0153 H   0  0  0  0  0  0  0  0  0  0  0  0
    8.1635   -1.0564    3.9254 H   0  0  0  0  0  0  0  0  0  0  0  0
    7.7017    1.1438    3.9941 H   0  0  0  0  0  0  0  0  0  0  0  0
    7.4290    2.5648    2.9819 H   0  0  0  0  0  0  0  0  0  0  0  0
   10.0881   -1.8698    0.9640 H   0  0  0  0  0  0  0  0  0  0  0  0
   10.3348   -0.2389    0.3876 H   0  0  0  0  0  0  0  0  0  0  0  0
    8.7946   -1.0275    0.1450 H   0  0  0  0  0  0  0  0  0  0  0  0
    9.3638    2.7344    4.5352 H   0  0  0  0  0  0  0  0  0  0  0  0
    9.7157    2.9928    2.8129 H   0  0  0  0  0  0  0  0  0  0  0  0
   11.8206   -1.2537    2.1166 H   0  0  0  0  0  0  0  0  0  0  0  0
   11.0870   -1.8071    3.6782 H   0  0  0  0  0  0  0  0  0  0  0  0
   13.6314   -1.1176    3.4680 H   0  0  0  0  0  0  0  0  0  0  0  0
   12.6581   -0.9086    4.9196 H   0  0  0  0  0  0  0  0  0  0  0  0
   11.6180    3.5633    5.2760 H   0  0  0  0  0  0  0  0  0  0  0  0
   12.0790    3.5570    3.6258 H   0  0  0  0  0  0  0  0  0  0  0  0
   10.7247    1.8424    6.3517 H   0  0  0  0  0  0  0  0  0  0  0  0
   12.2529    1.0054    6.4833 H   0  0  0  0  0  0  0  0  0  0  0  0
   10.8515    0.1720    5.8549 H   0  0  0  0  0  0  0  0  0  0  0  0
   14.2119    0.8520    5.6464 H   0  0  0  0  0  0  0  0  0  0  0  0
   14.1660    0.7771    2.0114 H   0  0  0  0  0  0  0  0  0  0  0  0
   13.5249    2.3687    2.3415 H   0  0  0  0  0  0  0  0  0  0  0  0
   12.4662    1.1016    1.7697 H   0  0  0  0  0  0  0  0  0  0  0  0
   13.7600    3.2146    6.0207 H   0  0  0  0  0  0  0  0  0  0  0  0
   14.2723    3.6189    4.4132 H   0  0  0  0  0  0  0  0  0  0  0  0
   15.7145    1.9249    3.4142 H   0  0  0  0  0  0  0  0  0  0  0  0
   15.3781   -0.7065    4.4927 H   0  0  0  0  0  0  0  0  0  0  0  0
   17.0643   -0.1451    4.5746 H   0  0  0  0  0  0  0  0  0  0  0  0
   16.6512    1.5301    6.2372 H   0  0  0  0  0  0  0  0  0  0  0  0
   16.1222    3.0928    5.5389 H   0  0  0  0  0  0  0  0  0  0  0  0
   18.3431    1.5920    4.2925 H   0  0  0  0  0  0  0  0  0  0  0  0
   18.6264    2.6008    5.7041 H   0  0  0  0  0  0  0  0  0  0  0  0
   18.0754    4.5423    4.6008 H   0  0  0  0  0  0  0  0  0  0  0  0
   17.1191    3.6668    3.3859 H   0  0  0  0  0  0  0  0  0  0  0  0
   20.0599    3.3568    3.5125 H   0  0  0  0  0  0  0  0  0  0  0  0
   18.7469    1.8031    2.1297 H   0  0  0  0  0  0  0  0  0  0  0  0
   19.7286    2.8277    1.1101 H   0  0  0  0  0  0  0  0  0  0  0  0
   18.0209    3.1519    1.2890 H   0  0  0  0  0  0  0  0  0  0  0  0
   19.7183    5.7569    3.3356 H   0  0  0  0  0  0  0  0  0  0  0  0
   18.6758    5.5114    1.9550 H   0  0  0  0  0  0  0  0  0  0  0  0
   20.3706    5.0982    1.8544 H   0  0  0  0  0  0  0  0  0  0  0  0
  1  2  2  0  0  0  0
  2  3  1  0  0  0  0
  2  4  1  0  0  0  0
  3  5  1  0  0  0  0
  3  6  1  0  0  0  0
  3  7  1  0  0  0  0
  4  8  1  0  0  0  0
  4 35  1  0  0  0  0
  4 36  1  0  0  0  0
  5  9  1  0  0  0  0
  5 10  1  0  0  0  0
  5 37  1  0  0  0  0
  6 38  1  0  0  0  0
  6 39  1  0  0  0  0
  6 40  1  0  0  0  0
  7 41  1  0  0  0  0
  7 42  1  0  0  0  0
  7 43  1  0  0  0  0
  8  9  1  0  0  0  0
  8 44  1  0  0  0  0
  8 45  1  0  0  0  0
  9 11  1  0  0  0  0
  9 12  1  0  0  0  0
 10 13  1  0  0  0  0
 10 46  1  0  0  0  0
 10 47  1  0  0  0  0
 11 14  2  0  0  0  0
 11 15  1  0  0  0  0
 12 48  1  0  0  0  0
 12 49  1  0  0  0  0
 12 50  1  0  0  0  0
 13 14  1  0  0  0  0
 13 51  1  0  0  0  0
 13 52  1  0  0  0  0
 14 16  1  0  0  0  0
 15 17  1  0  0  0  0
 15 53  1  0  0  0  0
 15 54  1  0  0  0  0
 16 18  1  0  0  0  0
 16 19  1  0  0  0  0
 16 20  1  0  0  0  0
 17 18  1  0  0  0  0
 17 55  1  0  0  0  0
 17 56  1  0  0  0  0
 18 21  1  0  0  0  0
 18 22  1  0  0  0  0
 19 23  1  0  0  0  0
 19 57  1  0  0  0  0
 19 58  1  0  0  0  0
 20 59  1  0  0  0  0
 20 60  1  0  0  0  0
 20 61  1  0  0  0  0
 21 24  1  0  0  0  0
 21 23  1  0  0  0  0
 21 62  1  0  0  0  0
 22 63  1  0  0  0  0
 22 64  1  0  0  0  0
 22 65  1  0  0  0  0
 23 66  1  0  0  0  0
 23 67  1  0  0  0  0
 24 25  1  0  0  0  0
 24 26  1  0  0  0  0
 24 68  1  0  0  0  0
 25 27  1  0  0  0  0
 25 69  1  0  0  0  0
 25 70  1  0  0  0  0
 26 28  1  0  0  0  0
 26 71  1  0  0  0  0
 26 72  1  0  0  0  0
 27 29  2  0  0  0  0
 27 30  1  0  0  0  0
 28 31  1  0  0  0  0
 28 73  1  0  0  0  0
 28 74  1  0  0  0  0
 31 32  1  0  0  0  0
 31 75  1  0  0  0  0
 31 76  1  0  0  0  0
 32 33  1  0  0  0  0
 32 34  1  0  0  0  0
 32 77  1  0  0  0  0
 33 78  1  0  0  0  0
 33 79  1  0  0  0  0
 33 80  1  0  0  0  0
 34 81  1  0  0  0  0
 34 82  1  0  0  0  0
 34 83  1  0  0  0  0
M  CHG  1  30  -1
M  END
>  <Code-name>
002

>  <Compound>
3-Oxo-8-lanostan-21-oic-acid

>  <Specie>
Ganoderma tsugae

>  <Reference>
LIN et al., 2016

>  <Organism>
Antitumoral Activity

>  <Smiles>
CC(C)CCC[C@@H](CC(O)=O)[C@@H](CC1)[C@@](C)(CC2)[C@]1(C)C(CC1)=C2[C@@](C)(CC2)[C@H]1C(C)(C)C2=O

>  <MMFF94 Energy>
90.841

>  <Total Molweight>
470.735

>  <Molweight>
470.735

>  <Monoisotopic Mass>
470.375995

>  <cLogP>
7.6075

>  <cLogS>
-6.513

>  <H-Acceptors>
3

>  <H-Donors>
1

>  <Total Surface Area>
366.85

>  <Relative PSA>
0.1068

>  <Polar Surface Area>
54.37

>  <Druglikeness>
-5.0411

>  <Mutagenic>
none

>  <Tumorigenic>
none

>  <Reproductive Effective>
low

>  <Irritant>
none

>  <Nasty Functions>


>  <Shape Index>
0.47059

>  <Molecular Flexibility>
0.32934

>  <Molecular Complexity>
0.99297

>  <Fragments>
1

>  <Non-H Atoms>
34

>  <Non-C/H Atoms>
3

>  <Metal-Atoms>
0

>  <Electronegative Atoms>
3

>  <Stereo Centers>
6

>  <Rotatable Bonds>
7

>  <Rings Closures>
4

>  <Small Rings>
4

>  <Aromatic Rings>
0

>  <Aromatic Atoms>
0

>  <sp3-Atoms>
28

>  <Symmetric atoms>
2

>  <Amides>
0

>  <Amines>
0

>  <Alkyl-Amines>
0

>  <Aromatic Amines>
0

>  <Aromatic Nitrogens>
0

>  <Basic Nitrogens>
0

>  <Acidic Oxygens>
1

>  <Stereo Configuration>
this enantiomer

> <Gold.Version>
5.8.1

> <Gold.Id.Protein>
ID_2|Prot_COX2_5IKQ_Alig|mol2

> <Gold.Goldscore.Fitness>
-77.6516

> <Gold.Goldscore.Internal.Vdw>
-35.3904

> <Gold.Goldscore.Internal.Torsion>
-9.5133

> <Gold.Goldscore.External.Vdw>
-56.5090

> <Gold.Goldscore.Internal.HBond>
0.0000

> <Gold.Goldscore.External.HBond>
3.7644

> <Gold.Goldscore.Internal.Correction>
-41.1876

> <Gold.Goldscore.Hbonds>
donor molecule, donor type, donor heavy atom, donor atom, acceptor molecule, acceptor atom, score
      P1  H  1377  1390       L1    29  0.09
      P1  H  5068  5077       L1     1  0.11
      P1  H  5703  5712       L1     1  1.00
      P1  H  7785  7797       L1    30  0.06

> <Gold.Goldscore.Internal.Vdw.Weighted>
-35.3904

> <Gold.Goldscore.Internal.Torsion.Weighted>
-9.5133

> <Gold.Goldscore.External.Vdw.Weighted>
-77.6999

> <Gold.Goldscore.Internal.HBond.Weighted>
0.0000

> <Gold.Goldscore.External.HBond.Weighted>
3.7644

> <Gold.Goldscore.Internal.Correction.Weighted>
-41.1876

> <Gold.Protein.RotatedTorsions>
[ 5077 5068 5067 5065 ] final -159.28 input  179.94 | X-H torsion
[ 5157 5152 5151 5148 ] final  173.02 input -179.92 | X-H torsion
[ 5185 5176 5175 5173 ] final   50.78 input -179.99 | X-H torsion
[ 5712 5703 5702 5700 ] final  112.80 input  180.00 | X-H torsion
[ 8036 8031 8030 8027 ] final -101.42 input -179.94 | X-H torsion
[ 2749 2745 2743 2740 ] final -149.58 input  -60.05 | X-H torsion
[ 1366 1361 1360 1357 ] final  -61.66 input  -60.09 | X-H torsion
[ 2556 2551 2550 2547 ] final  142.54 input   59.97 | X-H torsion

> <Gold.Protein.ActiveResidues>
 PRO86   VAL89   HIS90   LEU93   THR94   ILE112  MET113  TYR115  VAL116  LEU117 
 THR118  SER119  ARG120  SER121  LEU123  ILE124  GLN192  SER194  PHE198  PHE201 
 ALA202  GLN203  PHE205  THR206  PHE209  PHE210  VAL228  ILE341  ILE343  VAL344 
 ILE345  GLU346  ASP347  TYR348  VAL349  GLN350  HIS351  LEU352  SER353  GLY354 
 TYR355  PHE357  LEU359  LYS360  GLU380  PHE381  ASN382  THR383  LEU384  TYR385 
 HIS386  TRP387  LEU390  VAL434  LEU507  ARG513  ALA516  ILE517  PHE518  GLY519 
 GLU520  THR521  MET522  VAL523  GLU524  VAL525  GLY526  ALA527  PRO528  PHE529 
 SER530  LEU531  LYS532  GLY533  LEU534  MET535  COH609 

> <Gold.Protein.RotatedAtoms>
   17.9128    7.7365    3.1248 H   0  0  0  0  0  0  0  0  0  0  0  0  # atno 1366 bound_to 1361
    4.7901   -9.6603    6.6055 H   0  0  0  0  0  0  0  0  0  0  0  0  # atno 2556 bound_to 2551
   -2.8117   -0.5176    0.6162 H   0  0  0  0  0  0  0  0  0  0  0  0  # atno 2749 bound_to 2745
    2.0983   -1.8037    3.7208 H   0  0  0  0  0  0  0  0  0  0  0  0  # atno 5077 bound_to 5068
   12.4870   -1.4053    9.2099 H   0  0  0  0  0  0  0  0  0  0  0  0  # atno 5157 bound_to 5152
   15.3884   -0.9704    4.6444 H   0  0  0  0  0  0  0  0  0  0  0  0  # atno 5185 bound_to 5176
    3.0363   -0.5102    2.4093 H   0  0  0  0  0  0  0  0  0  0  0  0  # atno 5712 bound_to 5703
    6.2485    4.6029    3.7082 H   0  0  0  0  0  0  0  0  0  0  0  0  # atno 8036 bound_to 8031
    0.6376   -1.5331    3.9544 LP  0  0  0  0  0  0  0  0  0  0  0  0  # atno 8267 bound_to 5068
    1.3341   -2.9756    4.2721 LP  0  0  0  0  0  0  0  0  0  0  0  0  # atno 8268 bound_to 5068
   12.6841   -2.8973    9.2196 LP  0  0  0  0  0  0  0  0  0  0  0  0  # atno 8279 bound_to 5152
   11.2150   -2.1969    9.3528 LP  0  0  0  0  0  0  0  0  0  0  0  0  # atno 8280 bound_to 5152
   16.7622   -0.4356    4.9362 LP  0  0  0  0  0  0  0  0  0  0  0  0  # atno 8281 bound_to 5176
   15.4157    0.4844    5.0205 LP  0  0  0  0  0  0  0  0  0  0  0  0  # atno 8282 bound_to 5176
    1.7016   -0.9853    2.9106 LP  0  0  0  0  0  0  0  0  0  0  0  0  # atno 8283 bound_to 5703
    2.0257    0.5852    2.6026 LP  0  0  0  0  0  0  0  0  0  0  0  0  # atno 8284 bound_to 5703
    5.1807    3.5930    3.3923 LP  0  0  0  0  0  0  0  0  0  0  0  0  # atno 8309 bound_to 8031
    4.9342    5.2043    3.2949 LP  0  0  0  0  0  0  0  0  0  0  0  0  # atno 8310 bound_to 8031
   -3.8463    0.1460   -0.2514 LP  0  0  0  0  0  0  0  0  0  0  0  0  # atno 8323 bound_to 2745
   -3.9972    0.0211    1.3698 LP  0  0  0  0  0  0  0  0  0  0  0  0  # atno 8324 bound_to 2745
   18.9105    6.6222    2.9605 LP  0  0  0  0  0  0  0  0  0  0  0  0  # atno 8335 bound_to 1361
   17.8592    7.0506    1.7866 LP  0  0  0  0  0  0  0  0  0  0  0  0  # atno 8336 bound_to 1361
    5.2603  -10.0591    7.9780 LP  0  0  0  0  0  0  0  0  0  0  0  0  # atno 8342 bound_to 2551
    4.5398   -8.6264    7.6697 LP  0  0  0  0  0  0  0  0  0  0  0  0  # atno 8343 bound_to 2551

