
031|LMW3_p|sdf|31|dock4
  -GOLD-   6 722 4373D 1   1.00000     0.00000

119122  0  0  0  0  0  0  0  0  1 V2000
   16.1317    4.1911    4.6073 O   0  0  0  0  0  0  0  0  0  0  0  0
   16.0988    3.0943    5.1454 C   0  0  0  0  0  0  0  0  0  0  0  0
   14.9641    2.4181    5.4850 O   0  0  0  0  0  0  0  0  0  0  0  0
   17.3028    2.2741    5.5448 C   0  0  0  0  0  0  0  0  0  0  0  0
   13.7355    3.1773    5.4582 C   0  0  2  0  0  0  0  0  0  0  0  0
   17.9910    1.6442    4.3355 C   0  0  0  0  0  0  0  0  0  0  0  0
   12.6946    2.5384    6.3951 C   0  0  0  0  0  0  0  0  0  0  0  0
   13.2991    3.2692    3.9981 C   0  0  0  0  0  0  0  0  0  0  0  0
   18.5238    2.7120    3.3796 C   0  0  0  0  0  0  0  0  0  0  0  0
   11.4742    1.9154    5.6892 C   0  0  2  0  0  0  0  0  0  0  0  0
   12.6460    2.0079    3.4215 C   0  0  0  0  0  0  0  0  0  0  0  0
   19.2129    2.0809    2.1687 C   0  0  0  0  0  0  0  0  0  0  0  0
   11.8751    1.1004    4.4327 C   0  0  2  0  0  0  0  0  0  0  0  0
   10.4129    2.9988    5.4013 C   0  0  0  0  0  0  0  0  0  0  0  0
   19.4232    3.1047    1.0521 C   0  0  0  0  0  0  0  0  0  0  0  0
   10.5947    0.5099    3.7220 C   0  0  2  0  0  0  0  0  0  0  0  0
   12.8209   -0.0620    4.8322 C   0  0  0  0  0  0  0  0  0  0  0  0
    9.3764    2.5986    4.4031 C   0  0  0  0  0  0  0  0  0  0  0  0
   20.3153    2.5436   -0.0563 C   0  0  0  0  0  0  0  0  0  0  0  0
    9.4318    1.4852    3.6532 C   0  0  0  0  0  0  0  0  0  0  0  0
   10.0276   -0.7959    4.3156 C   0  0  0  0  0  0  0  0  0  0  0  0
   20.4234    3.5180   -1.2304 C   0  0  0  0  0  0  0  0  0  0  0  0
    8.2486    1.0577    2.8104 C   0  0  2  0  0  0  0  0  0  0  0  0
    8.8770   -1.3407    3.4523 C   0  0  0  0  0  0  0  0  0  0  0  0
   21.6076    3.1702   -2.1354 C   0  0  0  0  0  0  0  0  0  0  0  0
    7.7074   -0.3321    3.2233 C   0  0  2  0  0  0  0  0  0  0  0  0
    8.5188    0.9612    1.3026 C   0  0  0  0  0  0  0  0  0  0  0  0
   21.6955    4.1291   -3.3248 C   0  0  0  0  0  0  0  0  0  0  0  0
    6.8806   -0.7733    1.9698 C   0  0  2  0  0  0  0  0  0  0  0  0
    6.8840   -0.2582    4.5208 C   0  0  0  0  0  0  0  0  0  0  0  0
    7.7210   -0.2409    0.7886 C   0  0  0  0  0  0  0  0  0  0  0  0
   22.8653    3.8286   -4.2678 C   0  0  0  0  0  0  0  0  0  0  0  0
    5.3754   -0.3602    1.9016 C   0  0  1  0  0  0  0  0  0  0  0  0
   22.6627    2.5604   -5.1009 C   0  0  0  0  0  0  0  0  0  0  0  0
    5.0819    1.0920    2.2020 C   0  0  0  0  0  0  0  0  0  0  0  0
    4.7831   -0.6948    0.5227 C   0  0  0  0  0  0  0  0  0  0  0  0
   23.8325    2.2602   -6.0438 C   0  0  0  0  0  0  0  0  0  0  0  0
    4.0513    1.5120    2.9540 C   0  0  0  0  0  0  0  0  0  0  0  0
   23.8677    0.8110   -6.5306 C   0  0  0  0  0  0  0  0  0  0  0  0
    3.7613    2.9679    3.2506 C   0  0  1  0  0  0  0  0  0  0  0  0
   22.6056    0.4548   -7.3015 C   0  0  0  0  0  0  0  0  0  0  0  0
    2.9466    3.6276    2.1026 C   0  0  0  0  0  0  0  0  0  0  0  0
    3.0422    3.0414    4.6027 C   0  0  0  0  0  0  0  0  0  0  0  0
    2.5948    5.0876    2.4237 C   0  0  0  0  0  0  0  0  0  0  0  0
    1.6510    2.8655    1.8004 C   0  0  0  0  0  0  0  0  0  0  0  0
   16.9865    1.4954    6.2069 H   0  0  0  0  0  0  0  0  0  0  0  0
   18.0040    2.9262    6.0222 H   0  0  0  0  0  0  0  0  0  0  0  0
   13.8617    4.1725    5.8303 H   0  0  0  0  0  0  0  0  0  0  0  0
   17.2864    1.0303    3.8143 H   0  0  0  0  0  0  0  0  0  0  0  0
   18.8175    1.0607    4.6838 H   0  0  0  0  0  0  0  0  0  0  0  0
   12.3404    3.2960    7.0626 H   0  0  0  0  0  0  0  0  0  0  0  0
   13.1949    1.7331    6.8911 H   0  0  0  0  0  0  0  0  0  0  0  0
   14.1645    3.4905    3.4091 H   0  0  0  0  0  0  0  0  0  0  0  0
   12.5471    4.0297    3.9647 H   0  0  0  0  0  0  0  0  0  0  0  0
   19.2284    3.3259    3.9006 H   0  0  0  0  0  0  0  0  0  0  0  0
   17.6974    3.2956    3.0313 H   0  0  0  0  0  0  0  0  0  0  0  0
   11.0285    1.2026    6.3512 H   0  0  0  0  0  0  0  0  0  0  0  0
   13.4183    1.4160    2.9763 H   0  0  0  0  0  0  0  0  0  0  0  0
   11.9056    2.3602    2.7341 H   0  0  0  0  0  0  0  0  0  0  0  0
   18.6048    1.2820    1.7989 H   0  0  0  0  0  0  0  0  0  0  0  0
   20.1705    1.7166    2.4774 H   0  0  0  0  0  0  0  0  0  0  0  0
   10.9146    3.8687    5.0319 H   0  0  0  0  0  0  0  0  0  0  0  0
    9.8976    3.1734    6.3226 H   0  0  0  0  0  0  0  0  0  0  0  0
   19.8853    3.9781    1.4626 H   0  0  0  0  0  0  0  0  0  0  0  0
   18.4698    3.3437    0.6294 H   0  0  0  0  0  0  0  0  0  0  0  0
   10.9912    0.3016    2.7502 H   0  0  0  0  0  0  0  0  0  0  0  0
   12.9509   -0.7189    3.9977 H   0  0  0  0  0  0  0  0  0  0  0  0
   12.3938   -0.6043    5.6498 H   0  0  0  0  0  0  0  0  0  0  0  0
   13.7704    0.3352    5.1248 H   0  0  0  0  0  0  0  0  0  0  0  0
    8.5616    3.2201    4.2811 H   0  0  0  0  0  0  0  0  0  0  0  0
   19.8989    1.6219   -0.4057 H   0  0  0  0  0  0  0  0  0  0  0  0
   21.2950    2.3887    0.3449 H   0  0  0  0  0  0  0  0  0  0  0  0
    9.6627   -0.6019    5.3026 H   0  0  0  0  0  0  0  0  0  0  0  0
   10.8093   -1.5260    4.3414 H   0  0  0  0  0  0  0  0  0  0  0  0
   20.5553    4.5092   -0.8495 H   0  0  0  0  0  0  0  0  0  0  0  0
   19.5256    3.4506   -1.8087 H   0  0  0  0  0  0  0  0  0  0  0  0
    7.5454    1.8429    2.9944 H   0  0  0  0  0  0  0  0  0  0  0  0
    8.4798   -2.2096    3.9341 H   0  0  0  0  0  0  0  0  0  0  0  0
    9.2919   -1.5503    2.4885 H   0  0  0  0  0  0  0  0  0  0  0  0
   21.4865    2.1716   -2.5003 H   0  0  0  0  0  0  0  0  0  0  0  0
   22.5079    3.2564   -1.5635 H   0  0  0  0  0  0  0  0  0  0  0  0
    9.5635    0.8142    1.1238 H   0  0  0  0  0  0  0  0  0  0  0  0
    8.2266    1.8600    0.8010 H   0  0  0  0  0  0  0  0  0  0  0  0
   21.8104    5.1245   -2.9494 H   0  0  0  0  0  0  0  0  0  0  0  0
   20.7959    4.0102   -3.8918 H   0  0  0  0  0  0  0  0  0  0  0  0
    6.7508   -1.8354    1.9788 H   0  0  0  0  0  0  0  0  0  0  0  0
    6.0149    0.3443    4.3578 H   0  0  0  0  0  0  0  0  0  0  0  0
    7.4790    0.1765    5.2965 H   0  0  0  0  0  0  0  0  0  0  0  0
    6.5854   -1.2440    4.8103 H   0  0  0  0  0  0  0  0  0  0  0  0
    8.3883   -1.0019    0.4415 H   0  0  0  0  0  0  0  0  0  0  0  0
    7.0899    0.0441   -0.0271 H   0  0  0  0  0  0  0  0  0  0  0  0
   23.7525    3.7113   -3.6813 H   0  0  0  0  0  0  0  0  0  0  0  0
   22.9388    4.6481   -4.9518 H   0  0  0  0  0  0  0  0  0  0  0  0
    4.9172   -0.9310    2.6822 H   0  0  0  0  0  0  0  0  0  0  0  0
   21.7755    2.6778   -5.6874 H   0  0  0  0  0  0  0  0  0  0  0  0
   22.5890    1.7409   -4.4170 H   0  0  0  0  0  0  0  0  0  0  0  0
    5.7130    1.8053    1.8044 H   0  0  0  0  0  0  0  0  0  0  0  0
    4.7412    0.1934   -0.0725 H   0  0  0  0  0  0  0  0  0  0  0  0
    3.7960   -1.0895    0.6447 H   0  0  0  0  0  0  0  0  0  0  0  0
    5.4000   -1.4213    0.0363 H   0  0  0  0  0  0  0  0  0  0  0  0
   24.7461    2.4657   -5.5260 H   0  0  0  0  0  0  0  0  0  0  0  0
   23.7072    2.8792   -6.9076 H   0  0  0  0  0  0  0  0  0  0  0  0
    3.4197    0.8001    3.3532 H   0  0  0  0  0  0  0  0  0  0  0  0
   23.9542    0.1614   -5.6847 H   0  0  0  0  0  0  0  0  0  0  0  0
   24.7064    0.6952   -7.1848 H   0  0  0  0  0  0  0  0  0  0  0  0
    4.6731    3.5246    3.3103 H   0  0  0  0  0  0  0  0  0  0  0  0
   21.7579    0.5327   -6.6534 H   0  0  0  0  0  0  0  0  0  0  0  0
   22.6829   -0.5473   -7.6687 H   0  0  0  0  0  0  0  0  0  0  0  0
   22.4884    1.1283   -8.1246 H   0  0  0  0  0  0  0  0  0  0  0  0
    3.5789    3.5940    1.2401 H   0  0  0  0  0  0  0  0  0  0  0  0
    2.1067    2.5262    4.5376 H   0  0  0  0  0  0  0  0  0  0  0  0
    2.8682    4.0657    4.8589 H   0  0  0  0  0  0  0  0  0  0  0  0
    3.6499    2.5838    5.3551 H   0  0  0  0  0  0  0  0  0  0  0  0
    3.4686    5.5964    2.7738 H   0  0  0  0  0  0  0  0  0  0  0  0
    1.8392    5.1142    3.1808 H   0  0  0  0  0  0  0  0  0  0  0  0
    2.2314    5.5696    1.5401 H   0  0  0  0  0  0  0  0  0  0  0  0
    1.8582    1.8171    1.7471 H   0  0  0  0  0  0  0  0  0  0  0  0
    1.2514    3.1981    0.8652 H   0  0  0  0  0  0  0  0  0  0  0  0
    0.9393    3.0493    2.5780 H   0  0  0  0  0  0  0  0  0  0  0  0
  1  2  2  0  0  0  0
  2  3  1  0  0  0  0
  2  4  1  0  0  0  0
  3  5  1  0  0  0  0
  4  6  1  0  0  0  0
  4 46  1  0  0  0  0
  4 47  1  0  0  0  0
  5  7  1  0  0  0  0
  5  8  1  0  0  0  0
  5 48  1  0  0  0  0
  6  9  1  0  0  0  0
  6 49  1  0  0  0  0
  6 50  1  0  0  0  0
  7 10  1  0  0  0  0
  7 51  1  0  0  0  0
  7 52  1  0  0  0  0
  8 11  1  0  0  0  0
  8 53  1  0  0  0  0
  8 54  1  0  0  0  0
  9 12  1  0  0  0  0
  9 55  1  0  0  0  0
  9 56  1  0  0  0  0
 10 13  1  0  0  0  0
 10 14  1  0  0  0  0
 10 57  1  0  0  0  0
 11 13  1  0  0  0  0
 11 58  1  0  0  0  0
 11 59  1  0  0  0  0
 12 15  1  0  0  0  0
 12 60  1  0  0  0  0
 12 61  1  0  0  0  0
 13 16  1  0  0  0  0
 13 17  1  0  0  0  0
 14 18  1  0  0  0  0
 14 62  1  0  0  0  0
 14 63  1  0  0  0  0
 15 19  1  0  0  0  0
 15 64  1  0  0  0  0
 15 65  1  0  0  0  0
 16 20  1  0  0  0  0
 16 21  1  0  0  0  0
 16 66  1  0  0  0  0
 17 67  1  0  0  0  0
 17 68  1  0  0  0  0
 17 69  1  0  0  0  0
 18 20  2  0  0  0  0
 18 70  1  0  0  0  0
 19 22  1  0  0  0  0
 19 71  1  0  0  0  0
 19 72  1  0  0  0  0
 20 23  1  0  0  0  0
 21 24  1  0  0  0  0
 21 73  1  0  0  0  0
 21 74  1  0  0  0  0
 22 25  1  0  0  0  0
 22 75  1  0  0  0  0
 22 76  1  0  0  0  0
 23 26  1  0  0  0  0
 23 27  1  0  0  0  0
 23 77  1  0  0  0  0
 24 26  1  0  0  0  0
 24 78  1  0  0  0  0
 24 79  1  0  0  0  0
 25 28  1  0  0  0  0
 25 80  1  0  0  0  0
 25 81  1  0  0  0  0
 26 29  1  0  0  0  0
 26 30  1  0  0  0  0
 27 31  1  0  0  0  0
 27 82  1  0  0  0  0
 27 83  1  0  0  0  0
 28 32  1  0  0  0  0
 28 84  1  0  0  0  0
 28 85  1  0  0  0  0
 29 33  1  0  0  0  0
 29 31  1  0  0  0  0
 29 86  1  0  0  0  0
 30 87  1  0  0  0  0
 30 88  1  0  0  0  0
 30 89  1  0  0  0  0
 31 90  1  0  0  0  0
 31 91  1  0  0  0  0
 32 34  1  0  0  0  0
 32 92  1  0  0  0  0
 32 93  1  0  0  0  0
 33 35  1  0  0  0  0
 33 36  1  0  0  0  0
 33 94  1  0  0  0  0
 34 37  1  0  0  0  0
 34 95  1  0  0  0  0
 34 96  1  0  0  0  0
 35 38  2  0  0  0  0
 35 97  1  0  0  0  0
 36 98  1  0  0  0  0
 36 99  1  0  0  0  0
 36100  1  0  0  0  0
 37 39  1  0  0  0  0
 37101  1  0  0  0  0
 37102  1  0  0  0  0
 38 40  1  0  0  0  0
 38103  1  0  0  0  0
 39 41  1  0  0  0  0
 39104  1  0  0  0  0
 39105  1  0  0  0  0
 40 42  1  0  0  0  0
 40 43  1  0  0  0  0
 40106  1  0  0  0  0
 41107  1  0  0  0  0
 41108  1  0  0  0  0
 41109  1  0  0  0  0
 42 44  1  0  0  0  0
 42 45  1  0  0  0  0
 42110  1  0  0  0  0
 43111  1  0  0  0  0
 43112  1  0  0  0  0
 43113  1  0  0  0  0
 44114  1  0  0  0  0
 44115  1  0  0  0  0
 44116  1  0  0  0  0
 45117  1  0  0  0  0
 45118  1  0  0  0  0
 45119  1  0  0  0  0
M  END
>  <Code-name>
031

>  <Compound>
Ergosta-7,22-dien-3β-yl pentadecanoate

>  <Specie>
Phellinus baummi

>  <Reference>
ZHANG et al., 2017

>  <Organism>
Antitumoral Activity

>  <Smiles>
CCCCCCCCCCCCCCC(O[C@@H](CC1)C[C@@H]2[C@@]1(C)[C@@H](CC[C@@]1(C)[C@@H]3CC[C@@H]1[C@H](C)/C=C/[C@H](C)C(C)C)C3=CC2)=O

>  <MMFF94 Energy>
92.886

>  <Total Molweight>
623.059

>  <Molweight>
623.059

>  <Monoisotopic Mass>
622.568880

>  <cLogP>
13.54

>  <cLogS>
-10.091

>  <H-Acceptors>
2

>  <H-Donors>
0

>  <Total Surface Area>
534.06

>  <Relative PSA>
0.043141

>  <Polar Surface Area>
26.3

>  <Druglikeness>
-25.406

>  <Mutagenic>
none

>  <Tumorigenic>
none

>  <Reproductive Effective>
none

>  <Irritant>
none

>  <Nasty Functions>


>  <Shape Index>
0.68889

>  <Molecular Flexibility>
0.40231

>  <Molecular Complexity>
0.94361

>  <Fragments>
1

>  <Non-H Atoms>
45

>  <Non-C/H Atoms>
2

>  <Metal-Atoms>
0

>  <Electronegative Atoms>
2

>  <Stereo Centers>
9

>  <Rotatable Bonds>
19

>  <Rings Closures>
4

>  <Small Rings>
4

>  <Aromatic Rings>
0

>  <Aromatic Atoms>
0

>  <sp3-Atoms>
39

>  <Symmetric atoms>
1

>  <Amides>
0

>  <Amines>
0

>  <Alkyl-Amines>
0

>  <Aromatic Amines>
0

>  <Aromatic Nitrogens>
0

>  <Basic Nitrogens>
0

>  <Acidic Oxygens>
0

>  <Stereo Configuration>
this enantiomer

> <Gold.Version>
5.8.1

> <Gold.Id.Protein>
ID_2|Prot_COX2_5IKQ_Alig|mol2

> <Gold.Goldscore.Fitness>
51.2321

> <Gold.Goldscore.Internal.Vdw>
-24.7055

> <Gold.Goldscore.Internal.Torsion>
-9.2687

> <Gold.Goldscore.External.Vdw>
39.7556

> <Gold.Goldscore.Internal.HBond>
0.0000

> <Gold.Goldscore.External.HBond>
0.5413

> <Gold.Goldscore.Internal.Correction>
-30.0009

> <Gold.Goldscore.Hbonds>
donor molecule, donor type, donor heavy atom, donor atom, acceptor molecule, acceptor atom, score
      P1  H  1374  1386       L1     1  0.09

> <Gold.Goldscore.Internal.Vdw.Weighted>
-24.7055

> <Gold.Goldscore.Internal.Torsion.Weighted>
-9.2687

> <Gold.Goldscore.External.Vdw.Weighted>
54.6640

> <Gold.Goldscore.Internal.HBond.Weighted>
0.0000

> <Gold.Goldscore.External.HBond.Weighted>
0.5413

> <Gold.Goldscore.Internal.Correction.Weighted>
-30.0009

> <Gold.Protein.RotatedTorsions>
[ 5077 5068 5067 5065 ] final  170.67 input  179.94 | X-H torsion
[ 5157 5152 5151 5148 ] final -143.90 input -179.92 | X-H torsion
[ 5185 5176 5175 5173 ] final   -5.78 input -179.99 | X-H torsion
[ 5712 5703 5702 5700 ] final    5.75 input  180.00 | X-H torsion
[ 8036 8031 8030 8027 ] final  -74.94 input -179.94 | X-H torsion
[ 2749 2745 2743 2740 ] final  -18.80 input  -60.05 | X-H torsion
[ 1366 1361 1360 1357 ] final  143.84 input  -60.09 | X-H torsion
[ 2556 2551 2550 2547 ] final  162.03 input   59.97 | X-H torsion

> <Gold.Protein.ActiveResidues>
 PRO86   VAL89   HIS90   LEU93   THR94   ILE112  MET113  TYR115  VAL116  LEU117 
 THR118  SER119  ARG120  SER121  LEU123  ILE124  GLN192  SER194  PHE198  PHE201 
 ALA202  GLN203  PHE205  THR206  PHE209  PHE210  VAL228  ILE341  ILE343  VAL344 
 ILE345  GLU346  ASP347  TYR348  VAL349  GLN350  HIS351  LEU352  SER353  GLY354 
 TYR355  PHE357  LEU359  LYS360  GLU380  PHE381  ASN382  THR383  LEU384  TYR385 
 HIS386  TRP387  LEU390  VAL434  LEU507  ARG513  ALA516  ILE517  PHE518  GLY519 
 GLU520  THR521  MET522  VAL523  GLU524  VAL525  GLY526  ALA527  PRO528  PHE529 
 SER530  LEU531  LYS532  GLY533  LEU534  MET535  COH609 

> <Gold.Protein.RotatedAtoms>
   18.7289    6.6119    2.4569 H   0  0  0  0  0  0  0  0  0  0  0  0  # atno 1366 bound_to 1361
    4.6762   -9.4182    6.5996 H   0  0  0  0  0  0  0  0  0  0  0  0  # atno 2556 bound_to 2551
   -3.9925    0.0967    1.1560 H   0  0  0  0  0  0  0  0  0  0  0  0  # atno 2749 bound_to 2745
    1.8371   -1.4912    3.6804 H   0  0  0  0  0  0  0  0  0  0  0  0  # atno 5077 bound_to 5068
   11.9098   -1.3662    9.2594 H   0  0  0  0  0  0  0  0  0  0  0  0  # atno 5157 bound_to 5152
   16.1254   -1.0652    4.7158 H   0  0  0  0  0  0  0  0  0  0  0  0  # atno 5185 bound_to 5176
    1.9290   -0.9888    2.7978 H   0  0  0  0  0  0  0  0  0  0  0  0  # atno 5712 bound_to 5703
    6.1183    4.9364    3.6606 H   0  0  0  0  0  0  0  0  0  0  0  0  # atno 8036 bound_to 8031
    0.4839   -1.9585    4.1407 LP  0  0  0  0  0  0  0  0  0  0  0  0  # atno 8267 bound_to 5068
    1.8005   -2.9245    4.1341 LP  0  0  0  0  0  0  0  0  0  0  0  0  # atno 8268 bound_to 5068
   13.0700   -2.3225    9.1937 LP  0  0  0  0  0  0  0  0  0  0  0  0  # atno 8279 bound_to 5152
   11.5192   -2.8183    9.3195 LP  0  0  0  0  0  0  0  0  0  0  0  0  # atno 8280 bound_to 5152
   16.3930    0.3588    5.1151 LP  0  0  0  0  0  0  0  0  0  0  0  0  # atno 8281 bound_to 5176
   14.8999   -0.1962    4.7558 LP  0  0  0  0  0  0  0  0  0  0  0  0  # atno 8282 bound_to 5176
    1.8421    0.5059    2.6670 LP  0  0  0  0  0  0  0  0  0  0  0  0  # atno 8283 bound_to 5703
    3.2143   -0.3315    2.3799 LP  0  0  0  0  0  0  0  0  0  0  0  0  # atno 8284 bound_to 5703
    5.5855    3.5365    3.5330 LP  0  0  0  0  0  0  0  0  0  0  0  0  # atno 8309 bound_to 8031
    4.6856    4.8607    3.2114 LP  0  0  0  0  0  0  0  0  0  0  0  0  # atno 8310 bound_to 8031
   -2.7311   -0.6376    0.7910 LP  0  0  0  0  0  0  0  0  0  0  0  0  # atno 8323 bound_to 2745
   -3.6982    0.0689   -0.3191 LP  0  0  0  0  0  0  0  0  0  0  0  0  # atno 8324 bound_to 2745
   17.5619    7.4603    2.0299 LP  0  0  0  0  0  0  0  0  0  0  0  0  # atno 8335 bound_to 1361
   18.2315    7.5578    3.5161 LP  0  0  0  0  0  0  0  0  0  0  0  0  # atno 8336 bound_to 1361
    5.2926  -10.2273    7.7085 LP  0  0  0  0  0  0  0  0  0  0  0  0  # atno 8342 bound_to 2551
    4.6436   -8.7478    7.9463 LP  0  0  0  0  0  0  0  0  0  0  0  0  # atno 8343 bound_to 2551

