
036|LMW3_p|sdf|36|dock3
  -GOLD-   6 722 4593D 1   1.00000     0.00000

 78 82  0  0  0  0  0  0  0  0  1 V2000
    8.9817   -3.6477    2.9753 O   0  0  0  0  0  0  0  0  0  0  0  0
    9.0558   -2.4273    2.8376 C   0  0  0  0  0  0  0  0  0  0  0  0
   10.3189   -1.7531    3.1951 C   0  0  0  0  0  0  0  0  0  0  0  0
    7.8739   -1.5835    2.3672 C   0  0  1  0  0  0  0  0  0  0  0  0
   10.5039   -0.4305    3.0381 C   0  0  0  0  0  0  0  0  0  0  0  0
    8.3352   -0.3122    1.6110 C   0  0  1  0  0  0  0  0  0  0  0  0
    6.9352   -2.4578    1.5160 C   0  0  0  0  0  0  0  0  0  0  0  0
   11.7336    0.2909    3.5836 C   0  0  2  0  0  0  0  0  0  0  0  0
    9.4390    0.4645    2.4272 C   0  0  1  0  0  0  0  0  0  0  0  0
    8.9453   -0.7197    0.2231 C   0  0  0  0  0  0  0  0  0  0  0  0
    7.1232    0.6240    1.3746 C   0  0  0  0  0  0  0  0  0  0  0  0
    7.5856   -2.8842    0.1986 C   0  0  2  0  0  0  0  0  0  0  0  0
   12.5594   -0.6897    4.2201 O   0  0  0  0  0  0  0  0  0  0  0  0
   11.3520    1.4237    4.5966 C   0  0  1  0  0  0  0  0  0  0  0  0
   12.6037    0.9623    2.5108 C   0  0  0  0  0  0  0  0  0  0  0  0
    8.9416    1.3621    3.5740 C   0  0  0  0  0  0  0  0  0  0  0  0
    8.1020   -1.6881   -0.6122 C   0  0  1  0  0  0  0  0  0  0  0  0
    6.6167   -3.5783   -0.5981 O   0  0  0  0  0  0  0  0  0  0  0  0
   12.5877    2.4109    4.5469 C   0  0  2  0  0  0  0  0  0  0  0  0
   10.0913    2.2238    4.1138 C   0  0  0  0  0  0  0  0  0  0  0  0
   11.0026    0.8471    5.9787 C   0  0  0  0  0  0  0  0  0  0  0  0
   12.9463    2.3568    3.0340 C   0  0  0  0  0  0  0  0  0  0  0  0
    6.9986   -0.9966   -1.2014 O   0  0  0  0  0  0  0  0  0  0  0  0
   13.8369    2.2040    5.4827 C   0  0  1  0  0  0  0  0  0  0  0  0
   14.1579    0.8121    5.5410 O   0  0  0  0  0  0  0  0  0  0  0  0
   15.0606    2.9082    4.8998 C   0  0  2  0  0  0  0  0  0  0  0  0
   13.5727    2.6804    6.9252 C   0  0  0  0  0  0  0  0  0  0  0  0
   15.9564    2.1141    4.1042 O   0  0  0  0  0  0  0  0  0  0  0  0
   16.4710    2.5793    5.3570 C   0  0  1  0  0  0  0  0  0  0  0  0
   17.6176    3.5633    5.2818 C   0  0  1  0  0  0  0  0  0  0  0  0
   18.9865    2.8677    5.0239 C   0  0  0  0  0  0  0  0  0  0  0  0
   17.3975    4.7064    4.2815 C   0  0  0  0  0  0  0  0  0  0  0  0
   19.4086    2.9460    3.5524 C   0  0  0  0  0  0  0  0  0  0  0  0
   20.1186    3.3848    5.9160 C   0  0  0  0  0  0  0  0  0  0  0  0
   11.0907   -2.3192    3.5810 H   0  0  0  0  0  0  0  0  0  0  0  0
    7.3346   -1.2331    3.2223 H   0  0  0  0  0  0  0  0  0  0  0  0
    6.0476   -1.9011    1.2986 H   0  0  0  0  0  0  0  0  0  0  0  0
    6.7108   -3.3422    2.0749 H   0  0  0  0  0  0  0  0  0  0  0  0
    9.8373    1.0807    1.6484 H   0  0  0  0  0  0  0  0  0  0  0  0
    9.8940   -1.1805    0.4031 H   0  0  0  0  0  0  0  0  0  0  0  0
    9.0042    0.1837   -0.3471 H   0  0  0  0  0  0  0  0  0  0  0  0
    6.5987    0.7680    2.2960 H   0  0  0  0  0  0  0  0  0  0  0  0
    6.4659    0.1818    0.6554 H   0  0  0  0  0  0  0  0  0  0  0  0
    7.4681    1.5687    1.0090 H   0  0  0  0  0  0  0  0  0  0  0  0
    8.4188   -3.5100    0.4416 H   0  0  0  0  0  0  0  0  0  0  0  0
   12.9557   -1.2647    3.5469 H   0  0  0  0  0  0  0  0  0  0  0  0
   12.0631    1.0361    1.5903 H   0  0  0  0  0  0  0  0  0  0  0  0
   13.4899    0.3932    2.3219 H   0  0  0  0  0  0  0  0  0  0  0  0
    8.5605    0.7479    4.3629 H   0  0  0  0  0  0  0  0  0  0  0  0
    8.1700    2.0041    3.2036 H   0  0  0  0  0  0  0  0  0  0  0  0
    8.7450   -2.0758   -1.3743 H   0  0  0  0  0  0  0  0  0  0  0  0
    5.9134   -2.9638   -0.8600 H   0  0  0  0  0  0  0  0  0  0  0  0
   12.2975    3.3540    4.9608 H   0  0  0  0  0  0  0  0  0  0  0  0
   10.3996    2.8905    3.3358 H   0  0  0  0  0  0  0  0  0  0  0  0
    9.7077    2.7257    4.9774 H   0  0  0  0  0  0  0  0  0  0  0  0
   11.8455    0.3138    6.3662 H   0  0  0  0  0  0  0  0  0  0  0  0
   10.1704    0.1809    5.8872 H   0  0  0  0  0  0  0  0  0  0  0  0
   10.7489    1.6454    6.6444 H   0  0  0  0  0  0  0  0  0  0  0  0
   12.3807    3.0925    2.5013 H   0  0  0  0  0  0  0  0  0  0  0  0
   13.9878    2.5582    2.8938 H   0  0  0  0  0  0  0  0  0  0  0  0
    6.8939   -1.2806   -2.1230 H   0  0  0  0  0  0  0  0  0  0  0  0
   14.3523    0.4873    4.6479 H   0  0  0  0  0  0  0  0  0  0  0  0
   14.5054    3.8180    4.8042 H   0  0  0  0  0  0  0  0  0  0  0  0
   13.0332    3.6042    6.9025 H   0  0  0  0  0  0  0  0  0  0  0  0
   14.5052    2.8243    7.4297 H   0  0  0  0  0  0  0  0  0  0  0  0
   12.9964    1.9434    7.4443 H   0  0  0  0  0  0  0  0  0  0  0  0
   16.8645    2.1768    6.2670 H   0  0  0  0  0  0  0  0  0  0  0  0
   17.6457    4.0095    6.2539 H   0  0  0  0  0  0  0  0  0  0  0  0
   18.8204    1.8431    5.2837 H   0  0  0  0  0  0  0  0  0  0  0  0
   17.3189    4.3050    3.2927 H   0  0  0  0  0  0  0  0  0  0  0  0
   18.2243    5.3841    4.3266 H   0  0  0  0  0  0  0  0  0  0  0  0
   16.4958    5.2272    4.5277 H   0  0  0  0  0  0  0  0  0  0  0  0
   20.2672    2.3274    3.3942 H   0  0  0  0  0  0  0  0  0  0  0  0
   19.6480    3.9587    3.3033 H   0  0  0  0  0  0  0  0  0  0  0  0
   18.6053    2.6065    2.9324 H   0  0  0  0  0  0  0  0  0  0  0  0
   20.0307    2.9520    6.8906 H   0  0  0  0  0  0  0  0  0  0  0  0
   20.0546    4.4502    5.9918 H   0  0  0  0  0  0  0  0  0  0  0  0
   21.0614    3.1136    5.4890 H   0  0  0  0  0  0  0  0  0  0  0  0
  1  2  2  0  0  0  0
  2  3  1  0  0  0  0
  2  4  1  0  0  0  0
  3  5  2  0  0  0  0
  3 35  1  0  0  0  0
  4  6  1  0  0  0  0
  4  7  1  0  0  0  0
  4 36  1  0  0  0  0
  5  8  1  0  0  0  0
  5  9  1  0  0  0  0
  6 10  1  0  0  0  0
  6 11  1  0  0  0  0
  6  9  1  0  0  0  0
  7 12  1  0  0  0  0
  7 37  1  0  0  0  0
  7 38  1  0  0  0  0
  8 13  1  0  0  0  0
  8 14  1  0  0  0  0
  8 15  1  0  0  0  0
  9 16  1  0  0  0  0
  9 39  1  0  0  0  0
 10 17  1  0  0  0  0
 10 40  1  0  0  0  0
 10 41  1  0  0  0  0
 11 42  1  0  0  0  0
 11 43  1  0  0  0  0
 11 44  1  0  0  0  0
 12 18  1  0  0  0  0
 12 17  1  0  0  0  0
 12 45  1  0  0  0  0
 13 46  1  0  0  0  0
 14 19  1  0  0  0  0
 14 20  1  0  0  0  0
 14 21  1  0  0  0  0
 15 22  1  0  0  0  0
 15 47  1  0  0  0  0
 15 48  1  0  0  0  0
 16 20  1  0  0  0  0
 16 49  1  0  0  0  0
 16 50  1  0  0  0  0
 17 23  1  0  0  0  0
 17 51  1  0  0  0  0
 18 52  1  0  0  0  0
 19 24  1  0  0  0  0
 19 22  1  0  0  0  0
 19 53  1  0  0  0  0
 20 54  1  0  0  0  0
 20 55  1  0  0  0  0
 21 56  1  0  0  0  0
 21 57  1  0  0  0  0
 21 58  1  0  0  0  0
 22 59  1  0  0  0  0
 22 60  1  0  0  0  0
 23 61  1  0  0  0  0
 24 25  1  0  0  0  0
 24 26  1  0  0  0  0
 24 27  1  0  0  0  0
 25 62  1  0  0  0  0
 26 28  1  0  0  0  0
 26 29  1  0  0  0  0
 26 63  1  0  0  0  0
 27 64  1  0  0  0  0
 27 65  1  0  0  0  0
 27 66  1  0  0  0  0
 28 29  1  0  0  0  0
 29 30  1  0  0  0  0
 29 67  1  0  0  0  0
 30 31  1  0  0  0  0
 30 32  1  0  0  0  0
 30 68  1  0  0  0  0
 31 33  1  0  0  0  0
 31 34  1  0  0  0  0
 31 69  1  0  0  0  0
 32 70  1  0  0  0  0
 32 71  1  0  0  0  0
 32 72  1  0  0  0  0
 33 73  1  0  0  0  0
 33 74  1  0  0  0  0
 33 75  1  0  0  0  0
 34 76  1  0  0  0  0
 34 77  1  0  0  0  0
 34 78  1  0  0  0  0
M  END
>  <Code-name>
036

>  <Compound>
Polyporusterone C

>  <Specie>
Polyporus umbellatus

>  <Reference>
COTA et al, 2010

>  <Organism>
Cytotoxic Activity

>  <Smiles>
CC(C)[C@@H](C)[C@@H]1O[C@H]1[C@@](C)([C@@H](CC1)[C@@](C)(CC[C@H]([C@@](C)(C[C@@H]2O)[C@H]3C[C@H]2O)C2=CC3=O)[C@]12O)O

>  <MMFF94 Energy>
115.41

>  <Total Molweight>
476.651

>  <Molweight>
476.651

>  <Monoisotopic Mass>
476.313790

>  <cLogP>
2.7828

>  <cLogS>
-4.435

>  <H-Acceptors>
6

>  <H-Donors>
4

>  <Total Surface Area>
341.77

>  <Relative PSA>
0.24312

>  <Polar Surface Area>
110.52

>  <Druglikeness>
1.0913

>  <Mutagenic>
high

>  <Tumorigenic>
high

>  <Reproductive Effective>
none

>  <Irritant>
none

>  <Nasty Functions>
oxiran/aziridine

>  <Shape Index>
0.47059

>  <Molecular Flexibility>
0.31463

>  <Molecular Complexity>
1.0412

>  <Fragments>
1

>  <Non-H Atoms>
34

>  <Non-C/H Atoms>
6

>  <Metal-Atoms>
0

>  <Electronegative Atoms>
6

>  <Stereo Centers>
12

>  <Rotatable Bonds>
4

>  <Rings Closures>
5

>  <Small Rings>
5

>  <Aromatic Rings>
0

>  <Aromatic Atoms>
0

>  <sp3-Atoms>
30

>  <Symmetric atoms>
1

>  <Amides>
0

>  <Amines>
0

>  <Alkyl-Amines>
0

>  <Aromatic Amines>
0

>  <Aromatic Nitrogens>
0

>  <Basic Nitrogens>
0

>  <Acidic Oxygens>
0

>  <Stereo Configuration>
this enantiomer

> <Gold.Version>
5.8.1

> <Gold.Id.Protein>
ID_2|Prot_COX2_5IKQ_Alig|mol2

> <Gold.Goldscore.Fitness>
-14.6678

> <Gold.Goldscore.Internal.Vdw>
-37.9553

> <Gold.Goldscore.Internal.Torsion>
-10.0187

> <Gold.Goldscore.External.Vdw>
-5.2518

> <Gold.Goldscore.Internal.HBond>
0.0000

> <Gold.Goldscore.External.HBond>
2.9759

> <Gold.Goldscore.Internal.Correction>
-37.5515

> <Gold.Goldscore.Hbonds>
donor molecule, donor type, donor heavy atom, donor atom, acceptor molecule, acceptor atom, score
      P1  H  1377  1389       L1    28  0.50

> <Gold.Goldscore.Internal.Vdw.Weighted>
-37.9553

> <Gold.Goldscore.Internal.Torsion.Weighted>
-10.0187

> <Gold.Goldscore.External.Vdw.Weighted>
-7.2212

> <Gold.Goldscore.Internal.HBond.Weighted>
0.0000

> <Gold.Goldscore.External.HBond.Weighted>
2.9759

> <Gold.Goldscore.Internal.Correction.Weighted>
-37.5515

> <Gold.Protein.RotatedTorsions>
[ 5077 5068 5067 5065 ] final -135.03 input  179.94 | X-H torsion
[ 5157 5152 5151 5148 ] final -130.43 input -179.92 | X-H torsion
[ 5185 5176 5175 5173 ] final  -70.96 input -179.99 | X-H torsion
[ 5712 5703 5702 5700 ] final  111.24 input  180.00 | X-H torsion
[ 8036 8031 8030 8027 ] final -132.46 input -179.94 | X-H torsion
[ 2749 2745 2743 2740 ] final  -51.26 input  -60.05 | X-H torsion
[ 1366 1361 1360 1357 ] final  118.45 input  -60.09 | X-H torsion
[ 2556 2551 2550 2547 ] final   82.43 input   59.97 | X-H torsion

> <Gold.Protein.ActiveResidues>
 PRO86   VAL89   HIS90   LEU93   THR94   ILE112  MET113  TYR115  VAL116  LEU117 
 THR118  SER119  ARG120  SER121  LEU123  ILE124  GLN192  SER194  PHE198  PHE201 
 ALA202  GLN203  PHE205  THR206  PHE209  PHE210  VAL228  ILE341  ILE343  VAL344 
 ILE345  GLU346  ASP347  TYR348  VAL349  GLN350  HIS351  LEU352  SER353  GLY354 
 TYR355  PHE357  LEU359  LYS360  GLU380  PHE381  ASN382  THR383  LEU384  TYR385 
 HIS386  TRP387  LEU390  VAL434  LEU507  ARG513  ALA516  ILE517  PHE518  GLY519 
 GLU520  THR521  MET522  VAL523  GLU524  VAL525  GLY526  ALA527  PRO528  PHE529 
 SER530  LEU531  LYS532  GLY533  LEU534  MET535  COH609 

> <Gold.Protein.RotatedAtoms>
   18.5414    6.6478    2.1666 H   0  0  0  0  0  0  0  0  0  0  0  0  # atno 1366 bound_to 1361
    5.1144  -10.1676    7.1194 H   0  0  0  0  0  0  0  0  0  0  0  0  # atno 2556 bound_to 2551
   -3.6634   -0.1203    1.3548 H   0  0  0  0  0  0  0  0  0  0  0  0  # atno 2749 bound_to 2745
    2.1758   -2.1141    3.8079 H   0  0  0  0  0  0  0  0  0  0  0  0  # atno 5077 bound_to 5068
   11.7414   -1.4428    9.2728 H   0  0  0  0  0  0  0  0  0  0  0  0  # atno 5157 bound_to 5152
   16.6037   -0.4108    4.9679 H   0  0  0  0  0  0  0  0  0  0  0  0  # atno 5185 bound_to 5176
    3.0318   -0.5308    2.4134 H   0  0  0  0  0  0  0  0  0  0  0  0  # atno 5712 bound_to 5703
    6.2046    4.1834    3.6961 H   0  0  0  0  0  0  0  0  0  0  0  0  # atno 8036 bound_to 8031
    0.9147   -1.2950    3.8007 LP  0  0  0  0  0  0  0  0  0  0  0  0  # atno 8267 bound_to 5068
    0.9643   -2.8420    4.3215 LP  0  0  0  0  0  0  0  0  0  0  0  0  # atno 8268 bound_to 5068
   13.0920   -2.1022    9.1945 LP  0  0  0  0  0  0  0  0  0  0  0  0  # atno 8279 bound_to 5152
   11.6987   -2.9469    9.3027 LP  0  0  0  0  0  0  0  0  0  0  0  0  # atno 8280 bound_to 5152
   15.3880    0.4716    5.0131 LP  0  0  0  0  0  0  0  0  0  0  0  0  # atno 8281 bound_to 5176
   15.3307   -1.0948    4.5552 LP  0  0  0  0  0  0  0  0  0  0  0  0  # atno 8282 bound_to 5176
    1.6834   -0.9673    2.9134 LP  0  0  0  0  0  0  0  0  0  0  0  0  # atno 8283 bound_to 5703
    2.0494    0.5920    2.5948 LP  0  0  0  0  0  0  0  0  0  0  0  0  # atno 8284 bound_to 5703
    4.7967    3.8917    3.2571 LP  0  0  0  0  0  0  0  0  0  0  0  0  # atno 8309 bound_to 8031
    5.3709    5.4088    3.4446 LP  0  0  0  0  0  0  0  0  0  0  0  0  # atno 8310 bound_to 8031
   -2.7264   -0.5718    0.2677 LP  0  0  0  0  0  0  0  0  0  0  0  0  # atno 8323 bound_to 2745
   -4.0971    0.2630   -0.0339 LP  0  0  0  0  0  0  0  0  0  0  0  0  # atno 8324 bound_to 2745
   17.4839    7.7008    2.3588 LP  0  0  0  0  0  0  0  0  0  0  0  0  # atno 8335 bound_to 1361
   18.5339    7.2745    3.5345 LP  0  0  0  0  0  0  0  0  0  0  0  0  # atno 8336 bound_to 1361
    4.9248   -9.2287    8.2799 LP  0  0  0  0  0  0  0  0  0  0  0  0  # atno 8342 bound_to 2551
    4.4873   -8.8498    6.7529 LP  0  0  0  0  0  0  0  0  0  0  0  0  # atno 8343 bound_to 2551

