
037|LMW3_p|sdf|37|dock4
  -GOLD-   6 722 5 13D 1   1.00000     0.00000

 77 81  0  0  0  0  0  0  0  0  1 V2000
   10.0450   -0.6761    0.1510 O   0  0  0  0  0  0  0  0  0  0  0  0
    9.9767   -0.3153    1.3251 C   0  0  0  0  0  0  0  0  0  0  0  0
   10.9923    0.6340    1.8238 C   0  0  0  0  0  0  0  0  0  0  0  0
    8.9223   -0.8481    2.2907 C   0  0  1  0  0  0  0  0  0  0  0  0
   10.9610    1.1425    3.0684 C   0  0  0  0  0  0  0  0  0  0  0  0
    8.5558    0.1973    3.3735 C   0  0  1  0  0  0  0  0  0  0  0  0
    7.6914   -1.3147    1.4919 C   0  0  0  0  0  0  0  0  0  0  0  0
   12.1083    1.9580    3.6503 C   0  0  2  0  0  0  0  0  0  0  0  0
    9.8516    0.7948    4.0475 C   0  0  1  0  0  0  0  0  0  0  0  0
    7.7550    1.3756    2.7139 C   0  0  0  0  0  0  0  0  0  0  0  0
    7.6746   -0.4651    4.4627 C   0  0  0  0  0  0  0  0  0  0  0  0
    6.9669   -0.1481    0.8173 C   0  0  2  0  0  0  0  0  0  0  0  0
   13.1469    2.0660    2.6618 O   0  0  0  0  0  0  0  0  0  0  0  0
   12.7225    1.3147    4.9486 C   0  0  1  0  0  0  0  0  0  0  0  0
   11.7707    3.3835    4.0852 C   0  0  0  0  0  0  0  0  0  0  0  0
   10.5187   -0.0693    5.1369 C   0  0  0  0  0  0  0  0  0  0  0  0
    6.5895    0.9598    1.8101 C   0  0  1  0  0  0  0  0  0  0  0  0
    5.7620   -0.6319    0.2103 O   0  0  0  0  0  0  0  0  0  0  0  0
   13.3826    2.5486    5.7195 C   0  0  2  0  0  0  0  0  0  0  0  0
   11.6025    0.7347    5.8676 C   0  0  0  0  0  0  0  0  0  0  0  0
   13.6722    0.1651    4.5487 C   0  0  0  0  0  0  0  0  0  0  0  0
   13.0305    3.7783    4.8473 C   0  0  0  0  0  0  0  0  0  0  0  0
    5.4805    0.5348    2.6044 O   0  0  0  0  0  0  0  0  0  0  0  0
   14.8812    2.4760    6.1407 C   0  0  1  0  0  0  0  0  0  0  0  0
   15.7791    3.1982    5.1394 C   0  0  2  0  0  0  0  0  0  0  0  0
   15.0757    3.0202    7.5671 C   0  0  0  0  0  0  0  0  0  0  0  0
   15.9673    2.4983    3.9009 O   0  0  0  0  0  0  0  0  0  0  0  0
   17.1488    2.7100    4.6919 C   0  0  1  0  0  0  0  0  0  0  0  0
   18.1525    3.6473    4.0566 C   0  0  1  0  0  0  0  0  0  0  0  0
   18.5895    3.1272    2.6566 C   0  0  0  0  0  0  0  0  0  0  0  0
   17.5406    5.0538    3.9740 C   0  0  0  0  0  0  0  0  0  0  0  0
   19.9036    3.7597    2.1836 C   0  0  0  0  0  0  0  0  0  0  0  0
   18.7458    1.6024    2.6418 C   0  0  0  0  0  0  0  0  0  0  0  0
   11.7567    0.9187    1.1917 H   0  0  0  0  0  0  0  0  0  0  0  0
    9.3240   -1.6880    2.8179 H   0  0  0  0  0  0  0  0  0  0  0  0
    7.0122   -1.8032    2.1588 H   0  0  0  0  0  0  0  0  0  0  0  0
    8.0291   -1.9804    0.7253 H   0  0  0  0  0  0  0  0  0  0  0  0
    9.4309    1.6698    4.4971 H   0  0  0  0  0  0  0  0  0  0  0  0
    8.4395    1.9498    2.1251 H   0  0  0  0  0  0  0  0  0  0  0  0
    7.3173    1.9213    3.5235 H   0  0  0  0  0  0  0  0  0  0  0  0
    7.5341    0.2195    5.2729 H   0  0  0  0  0  0  0  0  0  0  0  0
    8.1572   -1.3496    4.8227 H   0  0  0  0  0  0  0  0  0  0  0  0
    6.7240   -0.7226    4.0444 H   0  0  0  0  0  0  0  0  0  0  0  0
    7.6363    0.2649    0.0918 H   0  0  0  0  0  0  0  0  0  0  0  0
   13.4325    1.1784    2.3947 H   0  0  0  0  0  0  0  0  0  0  0  0
   10.9086    3.4046    4.7186 H   0  0  0  0  0  0  0  0  0  0  0  0
   11.5284    4.0397    3.2755 H   0  0  0  0  0  0  0  0  0  0  0  0
   10.9641   -0.9290    4.6815 H   0  0  0  0  0  0  0  0  0  0  0  0
    9.7748   -0.3720    5.8439 H   0  0  0  0  0  0  0  0  0  0  0  0
    6.3239    1.8222    1.2351 H   0  0  0  0  0  0  0  0  0  0  0  0
    5.9837   -1.2787   -0.4777 H   0  0  0  0  0  0  0  0  0  0  0  0
   12.9735    2.5801    6.7077 H   0  0  0  0  0  0  0  0  0  0  0  0
   11.1283    1.5520    6.3698 H   0  0  0  0  0  0  0  0  0  0  0  0
   12.0854    0.0508    6.5339 H   0  0  0  0  0  0  0  0  0  0  0  0
   13.1945   -0.4546    3.8189 H   0  0  0  0  0  0  0  0  0  0  0  0
   13.9084   -0.4194    5.4133 H   0  0  0  0  0  0  0  0  0  0  0  0
   14.5718    0.5725    4.1370 H   0  0  0  0  0  0  0  0  0  0  0  0
   12.8436    4.6333    5.4629 H   0  0  0  0  0  0  0  0  0  0  0  0
   13.8303    4.0411    4.1869 H   0  0  0  0  0  0  0  0  0  0  0  0
    4.7051    0.4082    2.0356 H   0  0  0  0  0  0  0  0  0  0  0  0
   15.1725    1.4464    6.1399 H   0  0  0  0  0  0  0  0  0  0  0  0
   15.4510    4.1467    5.5103 H   0  0  0  0  0  0  0  0  0  0  0  0
   14.5906    3.9698    7.6558 H   0  0  0  0  0  0  0  0  0  0  0  0
   16.1209    3.1336    7.7661 H   0  0  0  0  0  0  0  0  0  0  0  0
   14.6509    2.3356    8.2711 H   0  0  0  0  0  0  0  0  0  0  0  0
   17.9115    2.1387    5.1788 H   0  0  0  0  0  0  0  0  0  0  0  0
   19.0351    3.6903    4.6599 H   0  0  0  0  0  0  0  0  0  0  0  0
   17.8067    3.4134    1.9856 H   0  0  0  0  0  0  0  0  0  0  0  0
   18.2530    5.7281    3.5465 H   0  0  0  0  0  0  0  0  0  0  0  0
   17.2788    5.3872    4.9564 H   0  0  0  0  0  0  0  0  0  0  0  0
   16.6638    5.0259    3.3613 H   0  0  0  0  0  0  0  0  0  0  0  0
   20.7040    3.4326    2.8138 H   0  0  0  0  0  0  0  0  0  0  0  0
   19.8242    4.8256    2.2321 H   0  0  0  0  0  0  0  0  0  0  0  0
   20.0997    3.4622    1.1746 H   0  0  0  0  0  0  0  0  0  0  0  0
   19.1295    1.2924    1.6923 H   0  0  0  0  0  0  0  0  0  0  0  0
   17.7931    1.1446    2.8082 H   0  0  0  0  0  0  0  0  0  0  0  0
   19.4238    1.3058    3.4146 H   0  0  0  0  0  0  0  0  0  0  0  0
  1  2  2  0  0  0  0
  2  3  1  0  0  0  0
  2  4  1  0  0  0  0
  3  5  2  0  0  0  0
  3 34  1  0  0  0  0
  4  6  1  0  0  0  0
  4  7  1  0  0  0  0
  4 35  1  0  0  0  0
  5  8  1  0  0  0  0
  5  9  1  0  0  0  0
  6 10  1  0  0  0  0
  6 11  1  0  0  0  0
  6  9  1  0  0  0  0
  7 12  1  0  0  0  0
  7 36  1  0  0  0  0
  7 37  1  0  0  0  0
  8 13  1  0  0  0  0
  8 14  1  0  0  0  0
  8 15  1  0  0  0  0
  9 16  1  0  0  0  0
  9 38  1  0  0  0  0
 10 17  1  0  0  0  0
 10 39  1  0  0  0  0
 10 40  1  0  0  0  0
 11 41  1  0  0  0  0
 11 42  1  0  0  0  0
 11 43  1  0  0  0  0
 12 18  1  0  0  0  0
 12 17  1  0  0  0  0
 12 44  1  0  0  0  0
 13 45  1  0  0  0  0
 14 19  1  0  0  0  0
 14 20  1  0  0  0  0
 14 21  1  0  0  0  0
 15 22  1  0  0  0  0
 15 46  1  0  0  0  0
 15 47  1  0  0  0  0
 16 20  1  0  0  0  0
 16 48  1  0  0  0  0
 16 49  1  0  0  0  0
 17 23  1  0  0  0  0
 17 50  1  0  0  0  0
 18 51  1  0  0  0  0
 19 24  1  0  0  0  0
 19 22  1  0  0  0  0
 19 52  1  0  0  0  0
 20 53  1  0  0  0  0
 20 54  1  0  0  0  0
 21 55  1  0  0  0  0
 21 56  1  0  0  0  0
 21 57  1  0  0  0  0
 22 58  1  0  0  0  0
 22 59  1  0  0  0  0
 23 60  1  0  0  0  0
 24 25  1  0  0  0  0
 24 26  1  0  0  0  0
 24 61  1  0  0  0  0
 25 27  1  0  0  0  0
 25 28  1  0  0  0  0
 25 62  1  0  0  0  0
 26 63  1  0  0  0  0
 26 64  1  0  0  0  0
 26 65  1  0  0  0  0
 27 28  1  0  0  0  0
 28 29  1  0  0  0  0
 28 66  1  0  0  0  0
 29 30  1  0  0  0  0
 29 31  1  0  0  0  0
 29 67  1  0  0  0  0
 30 32  1  0  0  0  0
 30 33  1  0  0  0  0
 30 68  1  0  0  0  0
 31 69  1  0  0  0  0
 31 70  1  0  0  0  0
 31 71  1  0  0  0  0
 32 72  1  0  0  0  0
 32 73  1  0  0  0  0
 32 74  1  0  0  0  0
 33 75  1  0  0  0  0
 33 76  1  0  0  0  0
 33 77  1  0  0  0  0
M  END
>  <Code-name>
037

>  <Compound>
Polyporusterone E

>  <Specie>
Polyporus umbellatus

>  <Reference>
COTA et al, 2010

>  <Organism>
Cytotoxic Activity

>  <Smiles>
CC(C)[C@@H](C)[C@@H]1O[C@H]1[C@@H](C)[C@@H](CC1)[C@@](C)(CC[C@H]([C@@](C)(C[C@@H]2O)[C@H]3C[C@H]2O)C2=CC3=O)[C@]12O

>  <MMFF94 Energy>
114.39

>  <Total Molweight>
460.652

>  <Molweight>
460.652

>  <Monoisotopic Mass>
460.318875

>  <cLogP>
3.6423

>  <cLogS>
-4.885

>  <H-Acceptors>
5

>  <H-Donors>
3

>  <Total Surface Area>
337.51

>  <Relative PSA>
0.20737

>  <Polar Surface Area>
90.29

>  <Druglikeness>
0.51725

>  <Mutagenic>
low

>  <Tumorigenic>
high

>  <Reproductive Effective>
none

>  <Irritant>
none

>  <Nasty Functions>
oxiran/aziridine

>  <Shape Index>
0.48485

>  <Molecular Flexibility>
0.31779

>  <Molecular Complexity>
1.0164

>  <Fragments>
1

>  <Non-H Atoms>
33

>  <Non-C/H Atoms>
5

>  <Metal-Atoms>
0

>  <Electronegative Atoms>
5

>  <Stereo Centers>
12

>  <Rotatable Bonds>
4

>  <Rings Closures>
5

>  <Small Rings>
5

>  <Aromatic Rings>
0

>  <Aromatic Atoms>
0

>  <sp3-Atoms>
29

>  <Symmetric atoms>
1

>  <Amides>
0

>  <Amines>
0

>  <Alkyl-Amines>
0

>  <Aromatic Amines>
0

>  <Aromatic Nitrogens>
0

>  <Basic Nitrogens>
0

>  <Acidic Oxygens>
0

>  <Stereo Configuration>
this enantiomer

> <Gold.Version>
5.8.1

> <Gold.Id.Protein>
ID_2|Prot_COX2_5IKQ_Alig|mol2

> <Gold.Goldscore.Fitness>
-28.6210

> <Gold.Goldscore.Internal.Vdw>
-35.1687

> <Gold.Goldscore.Internal.Torsion>
-7.5245

> <Gold.Goldscore.External.Vdw>
-14.2817

> <Gold.Goldscore.Internal.HBond>
0.0000

> <Gold.Goldscore.External.HBond>
2.6794

> <Gold.Goldscore.Internal.Correction>
-31.0302

> <Gold.Goldscore.Hbonds>
donor molecule, donor type, donor heavy atom, donor atom, acceptor molecule, acceptor atom, score
      P1  H  1377  1389       L1    27  0.44
      L1  H    23    60       P1  5703  0.02

> <Gold.Goldscore.Internal.Vdw.Weighted>
-35.1687

> <Gold.Goldscore.Internal.Torsion.Weighted>
-7.5245

> <Gold.Goldscore.External.Vdw.Weighted>
-19.6374

> <Gold.Goldscore.Internal.HBond.Weighted>
0.0000

> <Gold.Goldscore.External.HBond.Weighted>
2.6794

> <Gold.Goldscore.Internal.Correction.Weighted>
-31.0302

> <Gold.Protein.RotatedTorsions>
[ 5077 5068 5067 5065 ] final  131.27 input  179.94 | X-H torsion
[ 5157 5152 5151 5148 ] final  177.25 input -179.92 | X-H torsion
[ 5185 5176 5175 5173 ] final  -65.45 input -179.99 | X-H torsion
[ 5712 5703 5702 5700 ] final  -90.87 input  180.00 | X-H torsion
[ 8036 8031 8030 8027 ] final  164.21 input -179.94 | X-H torsion
[ 2749 2745 2743 2740 ] final   64.39 input  -60.05 | X-H torsion
[ 1366 1361 1360 1357 ] final   18.43 input  -60.09 | X-H torsion
[ 2556 2551 2550 2547 ] final  -62.96 input   59.97 | X-H torsion

> <Gold.Protein.ActiveResidues>
 PRO86   VAL89   HIS90   LEU93   THR94   ILE112  MET113  TYR115  VAL116  LEU117 
 THR118  SER119  ARG120  SER121  LEU123  ILE124  GLN192  SER194  PHE198  PHE201 
 ALA202  GLN203  PHE205  THR206  PHE209  PHE210  VAL228  ILE341  ILE343  VAL344 
 ILE345  GLU346  ASP347  TYR348  VAL349  GLN350  HIS351  LEU352  SER353  GLY354 
 TYR355  PHE357  LEU359  LYS360  GLU380  PHE381  ASN382  THR383  LEU384  TYR385 
 HIS386  TRP387  LEU390  VAL434  LEU507  ARG513  ALA516  ILE517  PHE518  GLY519 
 GLU520  THR521  MET522  VAL523  GLU524  VAL525  GLY526  ALA527  PRO528  PHE529 
 SER530  LEU531  LYS532  GLY533  LEU534  MET535  COH609 

> <Gold.Protein.RotatedAtoms>
   17.6714    7.4902    2.1680 H   0  0  0  0  0  0  0  0  0  0  0  0  # atno 1366 bound_to 1361
    4.7233   -9.0059    7.9998 H   0  0  0  0  0  0  0  0  0  0  0  0  # atno 2556 bound_to 2551
   -4.0163    0.2464    0.1183 H   0  0  0  0  0  0  0  0  0  0  0  0  # atno 2749 bound_to 2745
    1.3359   -1.3278    3.7534 H   0  0  0  0  0  0  0  0  0  0  0  0  # atno 5077 bound_to 5068
   12.4335   -1.3822    9.2147 H   0  0  0  0  0  0  0  0  0  0  0  0  # atno 5157 bound_to 5152
   16.5974   -0.4830    4.9463 H   0  0  0  0  0  0  0  0  0  0  0  0  # atno 5185 bound_to 5176
    1.6802    0.1586    2.7147 H   0  0  0  0  0  0  0  0  0  0  0  0  # atno 5712 bound_to 5703
    5.5756    3.6895    3.4820 H   0  0  0  0  0  0  0  0  0  0  0  0  # atno 8036 bound_to 8031
    0.6527   -2.5503    4.3013 LP  0  0  0  0  0  0  0  0  0  0  0  0  # atno 8267 bound_to 5068
    2.2319   -2.5283    3.8861 LP  0  0  0  0  0  0  0  0  0  0  0  0  # atno 8268 bound_to 5068
   12.7398   -2.8557    9.2153 LP  0  0  0  0  0  0  0  0  0  0  0  0  # atno 8279 bound_to 5152
   11.2231   -2.2660    9.3512 LP  0  0  0  0  0  0  0  0  0  0  0  0  # atno 8280 bound_to 5152
   15.4692    0.5060    5.0339 LP  0  0  0  0  0  0  0  0  0  0  0  0  # atno 8281 bound_to 5176
   15.2569   -1.0424    4.5604 LP  0  0  0  0  0  0  0  0  0  0  0  0  # atno 8282 bound_to 5176
    3.1340    0.0387    2.3531 LP  0  0  0  0  0  0  0  0  0  0  0  0  # atno 8283 bound_to 5703
    2.2209   -1.2414    2.7936 LP  0  0  0  0  0  0  0  0  0  0  0  0  # atno 8284 bound_to 5703
    4.6923    4.8760    3.2136 LP  0  0  0  0  0  0  0  0  0  0  0  0  # atno 8309 bound_to 8031
    6.2299    5.0171    3.7450 LP  0  0  0  0  0  0  0  0  0  0  0  0  # atno 8310 bound_to 8031
   -3.6563   -0.1951    1.5107 LP  0  0  0  0  0  0  0  0  0  0  0  0  # atno 8323 bound_to 2745
   -2.7446   -0.5529    0.2040 LP  0  0  0  0  0  0  0  0  0  0  0  0  # atno 8324 bound_to 2745
   18.3003    7.5007    3.5349 LP  0  0  0  0  0  0  0  0  0  0  0  0  # atno 8335 bound_to 1361
   18.7582    6.4668    2.3567 LP  0  0  0  0  0  0  0  0  0  0  0  0  # atno 8336 bound_to 1361
    4.5953   -9.1709    6.5096 LP  0  0  0  0  0  0  0  0  0  0  0  0  # atno 8342 bound_to 2551
    5.2846  -10.2975    7.4699 LP  0  0  0  0  0  0  0  0  0  0  0  0  # atno 8343 bound_to 2551

