
038|LMW3_p|sdf|38|dock1
  -GOLD-   6 722 5 23D 1   1.00000     0.00000

 79 82  0  0  0  0  0  0  0  0  1 V2000
    8.7665   -3.5318    2.5008 O   0  0  0  0  0  0  0  0  0  0  0  0
    8.8997   -2.3106    2.5410 C   0  0  0  0  0  0  0  0  0  0  0  0
   10.2436   -1.7706    2.8334 C   0  0  0  0  0  0  0  0  0  0  0  0
    7.7337   -1.3412    2.3635 C   0  0  1  0  0  0  0  0  0  0  0  0
   10.5112   -0.4531    2.8522 C   0  0  0  0  0  0  0  0  0  0  0  0
    8.1958    0.0107    1.7627 C   0  0  1  0  0  0  0  0  0  0  0  0
    6.6316   -2.0054    1.5179 C   0  0  0  0  0  0  0  0  0  0  0  0
   11.8350    0.1077    3.3540 C   0  0  2  0  0  0  0  0  0  0  0  0
    9.4447    0.5818    2.5399 C   0  0  1  0  0  0  0  0  0  0  0  0
    8.6026   -0.1966    0.2606 C   0  0  0  0  0  0  0  0  0  0  0  0
    7.0387    1.0389    1.8364 C   0  0  0  0  0  0  0  0  0  0  0  0
    7.0673   -2.2319    0.0690 C   0  0  2  0  0  0  0  0  0  0  0  0
   12.6763   -0.9850    3.7561 O   0  0  0  0  0  0  0  0  0  0  0  0
   11.6628    1.0829    4.5765 C   0  0  1  0  0  0  0  0  0  0  0  0
   12.6438    0.9341    2.3525 C   0  0  0  0  0  0  0  0  0  0  0  0
    9.1554    1.2914    3.8776 C   0  0  0  0  0  0  0  0  0  0  0  0
    7.5869   -0.9531   -0.6033 C   0  0  1  0  0  0  0  0  0  0  0  0
    5.9498   -2.7229   -0.6768 O   0  0  0  0  0  0  0  0  0  0  0  0
   12.9606    2.0122    4.5148 C   0  0  2  0  0  0  0  0  0  0  0  0
   10.4155    2.0030    4.3884 C   0  0  0  0  0  0  0  0  0  0  0  0
   11.4747    0.2657    5.8728 C   0  0  0  0  0  0  0  0  0  0  0  0
   13.7151    1.5469    3.2493 C   0  0  0  0  0  0  0  0  0  0  0  0
    6.4697   -0.1142   -0.9226 O   0  0  0  0  0  0  0  0  0  0  0  0
   13.8473    2.1501    5.7886 C   0  0  1  0  0  0  0  0  0  0  0  0
   15.1475    2.9886    5.5774 C   0  0  2  0  0  0  0  0  0  0  0  0
   13.0220    2.7276    6.9553 C   0  0  0  0  0  0  0  0  0  0  0  0
   14.9061    3.9437    4.5386 O   0  0  0  0  0  0  0  0  0  0  0  0
   16.4051    2.1612    5.2394 C   0  0  0  0  0  0  0  0  0  0  0  0
   17.4609    2.8951    4.3645 C   0  0  1  0  0  0  0  0  0  0  0  0
   18.0815    4.1120    5.1272 C   0  0  0  0  0  0  0  0  0  0  0  0
   18.5518    1.9357    3.8684 C   0  0  0  0  0  0  0  0  0  0  0  0
   19.1812    3.6876    6.1108 C   0  0  0  0  0  0  0  0  0  0  0  0
   18.6706    5.1645    4.1774 C   0  0  0  0  0  0  0  0  0  0  0  0
   11.0097   -2.4331    3.0317 H   0  0  0  0  0  0  0  0  0  0  0  0
    7.3274   -1.1135    3.3268 H   0  0  0  0  0  0  0  0  0  0  0  0
    5.7674   -1.3745    1.5225 H   0  0  0  0  0  0  0  0  0  0  0  0
    6.4203   -2.9616    1.9491 H   0  0  0  0  0  0  0  0  0  0  0  0
    9.7858    1.3005    1.8242 H   0  0  0  0  0  0  0  0  0  0  0  0
    9.5225   -0.7428    0.2411 H   0  0  0  0  0  0  0  0  0  0  0  0
    8.6723    0.7842   -0.1614 H   0  0  0  0  0  0  0  0  0  0  0  0
    6.2689    0.7594    1.1478 H   0  0  0  0  0  0  0  0  0  0  0  0
    7.4083    2.0106    1.5831 H   0  0  0  0  0  0  0  0  0  0  0  0
    6.6400    1.0566    2.8292 H   0  0  0  0  0  0  0  0  0  0  0  0
    7.8719   -2.9371    0.0824 H   0  0  0  0  0  0  0  0  0  0  0  0
   12.2226   -1.5101    4.4340 H   0  0  0  0  0  0  0  0  0  0  0  0
   12.0408    1.6895    1.8933 H   0  0  0  0  0  0  0  0  0  0  0  0
   13.0353    0.3644    1.5358 H   0  0  0  0  0  0  0  0  0  0  0  0
    8.8419    0.5673    4.6004 H   0  0  0  0  0  0  0  0  0  0  0  0
    8.3839    2.0171    3.7262 H   0  0  0  0  0  0  0  0  0  0  0  0
    8.1082   -1.2346   -1.4943 H   0  0  0  0  0  0  0  0  0  0  0  0
    6.2371   -2.9574   -1.5731 H   0  0  0  0  0  0  0  0  0  0  0  0
   12.6456    3.0336    4.4672 H   0  0  0  0  0  0  0  0  0  0  0  0
   10.6713    2.7694    3.6869 H   0  0  0  0  0  0  0  0  0  0  0  0
   10.1729    2.3801    5.3599 H   0  0  0  0  0  0  0  0  0  0  0  0
   12.4018   -0.1967    6.1407 H   0  0  0  0  0  0  0  0  0  0  0  0
   10.7326   -0.4887    5.7145 H   0  0  0  0  0  0  0  0  0  0  0  0
   11.1595    0.9161    6.6618 H   0  0  0  0  0  0  0  0  0  0  0  0
   14.1819    2.3780    2.7632 H   0  0  0  0  0  0  0  0  0  0  0  0
   14.4932    0.8494    3.4794 H   0  0  0  0  0  0  0  0  0  0  0  0
    5.8867   -0.5755   -1.5456 H   0  0  0  0  0  0  0  0  0  0  0  0
   14.1746    1.1590    6.0243 H   0  0  0  0  0  0  0  0  0  0  0  0
   15.3631    3.4585    6.5141 H   0  0  0  0  0  0  0  0  0  0  0  0
   13.5774    3.5074    7.4333 H   0  0  0  0  0  0  0  0  0  0  0  0
   12.8140    1.9525    7.6630 H   0  0  0  0  0  0  0  0  0  0  0  0
   12.1018    3.1239    6.5796 H   0  0  0  0  0  0  0  0  0  0  0  0
   14.2032    4.5520    4.8157 H   0  0  0  0  0  0  0  0  0  0  0  0
   16.0928    1.2824    4.7150 H   0  0  0  0  0  0  0  0  0  0  0  0
   16.8844    1.9520    6.1729 H   0  0  0  0  0  0  0  0  0  0  0  0
   16.9528    3.2736    3.5022 H   0  0  0  0  0  0  0  0  0  0  0  0
   17.2639    4.5405    5.6683 H   0  0  0  0  0  0  0  0  0  0  0  0
   19.3161    2.4929    3.3680 H   0  0  0  0  0  0  0  0  0  0  0  0
   18.1232    1.2288    3.1891 H   0  0  0  0  0  0  0  0  0  0  0  0
   18.9766    1.4169    4.7022 H   0  0  0  0  0  0  0  0  0  0  0  0
   19.4785    4.5306    6.6989 H   0  0  0  0  0  0  0  0  0  0  0  0
   20.0243    3.3181    5.5654 H   0  0  0  0  0  0  0  0  0  0  0  0
   18.8073    2.9183    6.7537 H   0  0  0  0  0  0  0  0  0  0  0  0
   19.5152    4.7512    3.6668 H   0  0  0  0  0  0  0  0  0  0  0  0
   18.9782    6.0207    4.7405 H   0  0  0  0  0  0  0  0  0  0  0  0
   17.9290    5.4551    3.4629 H   0  0  0  0  0  0  0  0  0  0  0  0
  1  2  2  0  0  0  0
  2  3  1  0  0  0  0
  2  4  1  0  0  0  0
  3  5  2  0  0  0  0
  3 34  1  0  0  0  0
  4  6  1  0  0  0  0
  4  7  1  0  0  0  0
  4 35  1  0  0  0  0
  5  8  1  0  0  0  0
  5  9  1  0  0  0  0
  6 10  1  0  0  0  0
  6 11  1  0  0  0  0
  6  9  1  0  0  0  0
  7 12  1  0  0  0  0
  7 36  1  0  0  0  0
  7 37  1  0  0  0  0
  8 13  1  0  0  0  0
  8 14  1  0  0  0  0
  8 15  1  0  0  0  0
  9 16  1  0  0  0  0
  9 38  1  0  0  0  0
 10 17  1  0  0  0  0
 10 39  1  0  0  0  0
 10 40  1  0  0  0  0
 11 41  1  0  0  0  0
 11 42  1  0  0  0  0
 11 43  1  0  0  0  0
 12 18  1  0  0  0  0
 12 17  1  0  0  0  0
 12 44  1  0  0  0  0
 13 45  1  0  0  0  0
 14 19  1  0  0  0  0
 14 20  1  0  0  0  0
 14 21  1  0  0  0  0
 15 22  1  0  0  0  0
 15 46  1  0  0  0  0
 15 47  1  0  0  0  0
 16 20  1  0  0  0  0
 16 48  1  0  0  0  0
 16 49  1  0  0  0  0
 17 23  1  0  0  0  0
 17 50  1  0  0  0  0
 18 51  1  0  0  0  0
 19 24  1  0  0  0  0
 19 22  1  0  0  0  0
 19 52  1  0  0  0  0
 20 53  1  0  0  0  0
 20 54  1  0  0  0  0
 21 55  1  0  0  0  0
 21 56  1  0  0  0  0
 21 57  1  0  0  0  0
 22 58  1  0  0  0  0
 22 59  1  0  0  0  0
 23 60  1  0  0  0  0
 24 25  1  0  0  0  0
 24 26  1  0  0  0  0
 24 61  1  0  0  0  0
 25 27  1  0  0  0  0
 25 28  1  0  0  0  0
 25 62  1  0  0  0  0
 26 63  1  0  0  0  0
 26 64  1  0  0  0  0
 26 65  1  0  0  0  0
 27 66  1  0  0  0  0
 28 29  1  0  0  0  0
 28 67  1  0  0  0  0
 28 68  1  0  0  0  0
 29 30  1  0  0  0  0
 29 31  1  0  0  0  0
 29 69  1  0  0  0  0
 30 32  1  0  0  0  0
 30 33  1  0  0  0  0
 30 70  1  0  0  0  0
 31 71  1  0  0  0  0
 31 72  1  0  0  0  0
 31 73  1  0  0  0  0
 32 74  1  0  0  0  0
 32 75  1  0  0  0  0
 32 76  1  0  0  0  0
 33 77  1  0  0  0  0
 33 78  1  0  0  0  0
 33 79  1  0  0  0  0
M  END
>  <Code-name>
038

>  <Compound>
Polyporusterone F

>  <Specie>
Polyporus umbellatus

>  <Reference>
COTA et al, 2010

>  <Organism>
Cytotoxic Activity

>  <Smiles>
CC(C)[C@@H](C)C[C@H]([C@@H](C)[C@@H](CC1)[C@@](C)(CC[C@H]([C@@](C)(C[C@@H]2O)[C@H]3C[C@H]2O)C2=CC3=O)[C@]12O)O

>  <MMFF94 Energy>
121.86

>  <Total Molweight>
462.668

>  <Molweight>
462.668

>  <Monoisotopic Mass>
462.334525

>  <cLogP>
3.9951

>  <cLogS>
-4.803

>  <H-Acceptors>
5

>  <H-Donors>
4

>  <Total Surface Area>
340.97

>  <Relative PSA>
0.19192

>  <Polar Surface Area>
97.99

>  <Druglikeness>
-1.3656

>  <Mutagenic>
low

>  <Tumorigenic>
high

>  <Reproductive Effective>
none

>  <Irritant>
none

>  <Nasty Functions>


>  <Shape Index>
0.48485

>  <Molecular Flexibility>
0.33538

>  <Molecular Complexity>
1.0064

>  <Fragments>
1

>  <Non-H Atoms>
33

>  <Non-C/H Atoms>
5

>  <Metal-Atoms>
0

>  <Electronegative Atoms>
5

>  <Stereo Centers>
11

>  <Rotatable Bonds>
5

>  <Rings Closures>
4

>  <Small Rings>
4

>  <Aromatic Rings>
0

>  <Aromatic Atoms>
0

>  <sp3-Atoms>
29

>  <Symmetric atoms>
1

>  <Amides>
0

>  <Amines>
0

>  <Alkyl-Amines>
0

>  <Aromatic Amines>
0

>  <Aromatic Nitrogens>
0

>  <Basic Nitrogens>
0

>  <Acidic Oxygens>
0

>  <Stereo Configuration>
this enantiomer

> <Gold.Version>
5.8.1

> <Gold.Id.Protein>
ID_2|Prot_COX2_5IKQ_Alig|mol2

> <Gold.Goldscore.Fitness>
-8.6438

> <Gold.Goldscore.Internal.Vdw>
-36.0103

> <Gold.Goldscore.Internal.Torsion>
-8.3268

> <Gold.Goldscore.External.Vdw>
-7.5695

> <Gold.Goldscore.Internal.HBond>
0.0000

> <Gold.Goldscore.External.HBond>
5.8679

> <Gold.Goldscore.Internal.Correction>
-40.2335

> <Gold.Goldscore.Hbonds>
donor molecule, donor type, donor heavy atom, donor atom, acceptor molecule, acceptor atom, score
      P1  H  1374  1386       L1    27  0.72
      P1  H  5176  5185       L1    13  0.76

> <Gold.Goldscore.Internal.Vdw.Weighted>
-36.0103

> <Gold.Goldscore.Internal.Torsion.Weighted>
-8.3268

> <Gold.Goldscore.External.Vdw.Weighted>
-10.4081

> <Gold.Goldscore.Internal.HBond.Weighted>
0.0000

> <Gold.Goldscore.External.HBond.Weighted>
5.8679

> <Gold.Goldscore.Internal.Correction.Weighted>
-40.2335

> <Gold.Protein.RotatedTorsions>
[ 5077 5068 5067 5065 ] final -120.26 input  179.94 | X-H torsion
[ 5157 5152 5151 5148 ] final -137.50 input -179.92 | X-H torsion
[ 5185 5176 5175 5173 ] final   88.03 input -179.99 | X-H torsion
[ 5712 5703 5702 5700 ] final  110.93 input  180.00 | X-H torsion
[ 8036 8031 8030 8027 ] final -144.14 input -179.94 | X-H torsion
[ 2749 2745 2743 2740 ] final   85.10 input  -60.05 | X-H torsion
[ 1366 1361 1360 1357 ] final    1.79 input  -60.09 | X-H torsion
[ 2556 2551 2550 2547 ] final  -24.10 input   59.97 | X-H torsion

> <Gold.Protein.ActiveResidues>
 PRO86   VAL89   HIS90   LEU93   THR94   ILE112  MET113  TYR115  VAL116  LEU117 
 THR118  SER119  ARG120  SER121  LEU123  ILE124  GLN192  SER194  PHE198  PHE201 
 ALA202  GLN203  PHE205  THR206  PHE209  PHE210  VAL228  ILE341  ILE343  VAL344 
 ILE345  GLU346  ASP347  TYR348  VAL349  GLN350  HIS351  LEU352  SER353  GLY354 
 TYR355  PHE357  LEU359  LYS360  GLU380  PHE381  ASN382  THR383  LEU384  TYR385 
 HIS386  TRP387  LEU390  VAL434  LEU507  ARG513  ALA516  ILE517  PHE518  GLY519 
 GLU520  THR521  MET522  VAL523  GLU524  VAL525  GLY526  ALA527  PRO528  PHE529 
 SER530  LEU531  LYS532  GLY533  LEU534  MET535  COH609 

> <Gold.Protein.RotatedAtoms>
   17.6312    7.6210    2.3513 H   0  0  0  0  0  0  0  0  0  0  0  0  # atno 1366 bound_to 1361
    4.9571   -9.4515    8.1525 H   0  0  0  0  0  0  0  0  0  0  0  0  # atno 2556 bound_to 2551
   -3.8265    0.1617   -0.0751 H   0  0  0  0  0  0  0  0  0  0  0  0  # atno 2749 bound_to 2745
    2.1566   -2.3035    3.8782 H   0  0  0  0  0  0  0  0  0  0  0  0  # atno 5077 bound_to 5068
   11.8276   -1.3976    9.2660 H   0  0  0  0  0  0  0  0  0  0  0  0  # atno 5157 bound_to 5152
   15.0836   -0.5763    4.7170 H   0  0  0  0  0  0  0  0  0  0  0  0  # atno 5185 bound_to 5176
    3.0308   -0.5349    2.4143 H   0  0  0  0  0  0  0  0  0  0  0  0  # atno 5712 bound_to 5703
    6.1341    4.0412    3.6728 H   0  0  0  0  0  0  0  0  0  0  0  0  # atno 8036 bound_to 8031
    1.1291   -1.2171    3.7185 LP  0  0  0  0  0  0  0  0  0  0  0  0  # atno 8267 bound_to 5068
    0.7729   -2.6931    4.3195 LP  0  0  0  0  0  0  0  0  0  0  0  0  # atno 8268 bound_to 5068
   13.0869   -2.2185    9.1935 LP  0  0  0  0  0  0  0  0  0  0  0  0  # atno 8279 bound_to 5152
   11.6007   -2.8848    9.3117 LP  0  0  0  0  0  0  0  0  0  0  0  0  # atno 8280 bound_to 5152
   16.5353   -0.9636    4.7541 LP  0  0  0  0  0  0  0  0  0  0  0  0  # atno 8281 bound_to 5176
   16.0084    0.5392    5.1156 LP  0  0  0  0  0  0  0  0  0  0  0  0  # atno 8282 bound_to 5176
    1.6798   -0.9636    2.9140 LP  0  0  0  0  0  0  0  0  0  0  0  0  # atno 8283 bound_to 5703
    2.0541    0.5932    2.5933 LP  0  0  0  0  0  0  0  0  0  0  0  0  # atno 8284 bound_to 5703
    4.6999    4.0539    3.2224 LP  0  0  0  0  0  0  0  0  0  0  0  0  # atno 8309 bound_to 8031
    5.5522    5.4173    3.5074 LP  0  0  0  0  0  0  0  0  0  0  0  0  # atno 8310 bound_to 8031
   -3.9319   -0.0226    1.4143 LP  0  0  0  0  0  0  0  0  0  0  0  0  # atno 8323 bound_to 2745
   -2.6962   -0.6239    0.5322 LP  0  0  0  0  0  0  0  0  0  0  0  0  # atno 8324 bound_to 2745
   18.4982    7.3126    3.5417 LP  0  0  0  0  0  0  0  0  0  0  0  0  # atno 8335 bound_to 1361
   18.6083    6.4983    2.1306 LP  0  0  0  0  0  0  0  0  0  0  0  0  # atno 8336 bound_to 1361
    4.4601   -8.7261    6.9315 LP  0  0  0  0  0  0  0  0  0  0  0  0  # atno 8342 bound_to 2551
    5.1402  -10.2092    6.8655 LP  0  0  0  0  0  0  0  0  0  0  0  0  # atno 8343 bound_to 2551

