
041|LMW3_p|sdf|41|dock1
  -GOLD-   6 722 5 83D 1   1.00000     0.00000

 42 43  0  0  0  0  0  0  0  0  1 V2000
    8.1432   -0.2840    4.3917 O   0  0  0  0  0  0  0  0  0  0  0  0
    8.8159   -0.1441    3.1345 C   0  0  2  0  0  0  0  0  0  0  0  0
   10.0294   -1.1185    3.0576 C   0  0  1  0  0  0  0  0  0  0  0  0
    9.2790    1.3088    3.0114 C   0  0  0  0  0  0  0  0  0  0  0  0
    7.7927   -0.4716    2.0399 C   0  0  0  0  0  0  0  0  0  0  0  0
   11.3848   -0.4531    3.4698 C   0  0  2  0  0  0  0  0  0  0  0  0
    9.7775   -2.4130    3.8550 C   0  0  0  0  0  0  0  0  0  0  0  0
   10.2215    1.7077    4.1509 C   0  0  0  0  0  0  0  0  0  0  0  0
   12.4647   -1.4819    3.7379 C   0  0  0  0  0  0  0  0  0  0  0  0
   11.1794    0.5805    4.6143 C   0  0  2  0  0  0  0  0  0  0  0  0
   10.9051   -3.4245    3.6741 C   0  0  0  0  0  0  0  0  0  0  0  0
   12.2701   -2.8098    3.8090 C   0  0  0  0  0  0  0  0  0  0  0  0
   12.4852    1.1504    5.2518 C   0  0  0  0  0  0  0  0  0  0  0  0
   13.4047   -3.7717    4.0148 C   0  0  0  0  0  0  0  0  0  0  0  0
   12.1769    2.1061    6.4121 C   0  0  0  0  0  0  0  0  0  0  0  0
   13.4246    1.8395    4.2561 C   0  0  0  0  0  0  0  0  0  0  0  0
    7.3874    0.3232    4.4233 H   0  0  0  0  0  0  0  0  0  0  0  0
   10.1243   -1.3805    2.0245 H   0  0  0  0  0  0  0  0  0  0  0  0
    8.4212    1.9481    3.0325 H   0  0  0  0  0  0  0  0  0  0  0  0
    9.8130    1.4092    2.0896 H   0  0  0  0  0  0  0  0  0  0  0  0
    8.2489   -0.3559    1.0790 H   0  0  0  0  0  0  0  0  0  0  0  0
    6.9585    0.1934    2.1210 H   0  0  0  0  0  0  0  0  0  0  0  0
    7.4569   -1.4809    2.1560 H   0  0  0  0  0  0  0  0  0  0  0  0
   11.7507    0.1106    2.6372 H   0  0  0  0  0  0  0  0  0  0  0  0
    8.8617   -2.8528    3.5192 H   0  0  0  0  0  0  0  0  0  0  0  0
    9.7264   -2.1572    4.8926 H   0  0  0  0  0  0  0  0  0  0  0  0
    9.6263    2.0061    4.9885 H   0  0  0  0  0  0  0  0  0  0  0  0
   10.8382    2.4970    3.7748 H   0  0  0  0  0  0  0  0  0  0  0  0
   13.4267   -1.1350    3.8771 H   0  0  0  0  0  0  0  0  0  0  0  0
   10.7304    0.0325    5.4161 H   0  0  0  0  0  0  0  0  0  0  0  0
   10.8210   -3.8588    2.6998 H   0  0  0  0  0  0  0  0  0  0  0  0
   10.8056   -4.1577    4.4470 H   0  0  0  0  0  0  0  0  0  0  0  0
   13.0022    0.2889    5.6198 H   0  0  0  0  0  0  0  0  0  0  0  0
   13.2091   -4.3749    4.8766 H   0  0  0  0  0  0  0  0  0  0  0  0
   14.3132   -3.2256    4.1605 H   0  0  0  0  0  0  0  0  0  0  0  0
   13.5004   -4.3999    3.1539 H   0  0  0  0  0  0  0  0  0  0  0  0
   11.5547    1.6098    7.1271 H   0  0  0  0  0  0  0  0  0  0  0  0
   11.6699    2.9705    6.0370 H   0  0  0  0  0  0  0  0  0  0  0  0
   13.0913    2.4044    6.8811 H   0  0  0  0  0  0  0  0  0  0  0  0
   13.5584    1.2125    3.3994 H   0  0  0  0  0  0  0  0  0  0  0  0
   14.3720    2.0141    4.7217 H   0  0  0  0  0  0  0  0  0  0  0  0
   12.9993    2.7730    3.9518 H   0  0  0  0  0  0  0  0  0  0  0  0
  1 17  1  0  0  0  0
  2  1  1  0  0  0  0
  2  3  1  0  0  0  0
  2  4  1  0  0  0  0
  2  5  1  0  0  0  0
  3  6  1  0  0  0  0
  3  7  1  0  0  0  0
  3 18  1  0  0  0  0
  4  8  1  0  0  0  0
  4 19  1  0  0  0  0
  4 20  1  0  0  0  0
  5 21  1  0  0  0  0
  5 22  1  0  0  0  0
  5 23  1  0  0  0  0
  6  9  1  0  0  0  0
  6 10  1  0  0  0  0
  6 24  1  0  0  0  0
  7 11  1  0  0  0  0
  7 25  1  0  0  0  0
  7 26  1  0  0  0  0
  8 10  1  0  0  0  0
  8 27  1  0  0  0  0
  8 28  1  0  0  0  0
  9 12  2  0  0  0  0
  9 29  1  0  0  0  0
 10 13  1  0  0  0  0
 10 30  1  0  0  0  0
 11 12  1  0  0  0  0
 11 31  1  0  0  0  0
 11 32  1  0  0  0  0
 12 14  1  0  0  0  0
 13 15  1  0  0  0  0
 13 16  1  0  0  0  0
 13 33  1  0  0  0  0
 14 34  1  0  0  0  0
 14 35  1  0  0  0  0
 14 36  1  0  0  0  0
 15 37  1  0  0  0  0
 15 38  1  0  0  0  0
 15 39  1  0  0  0  0
 16 40  1  0  0  0  0
 16 41  1  0  0  0  0
 16 42  1  0  0  0  0
M  END
>  <Code-name>
041

>  <Compound>
(+)- torreyol

>  <Specie>
Lignosus rhinoceroris

>  <Reference>
YAP et al., 2017

>  <Organism>
Cytotoxic Activity

>  <Smiles>
CC(C)[C@@H](CC1)[C@H]2C=C(C)CC[C@H]2[C@@]1(C)O

>  <MMFF94 Energy>
45.435

>  <Total Molweight>
222.370

>  <Molweight>
222.370

>  <Monoisotopic Mass>
222.198365

>  <cLogP>
3.5341

>  <cLogS>
-3.292

>  <H-Acceptors>
1

>  <H-Donors>
1

>  <Total Surface Area>
182.05

>  <Relative PSA>
0.071958

>  <Polar Surface Area>
20.23

>  <Druglikeness>
-4.2367

>  <Mutagenic>
none

>  <Tumorigenic>
none

>  <Reproductive Effective>
none

>  <Irritant>
none

>  <Nasty Functions>


>  <Shape Index>
0.4375

>  <Molecular Flexibility>
0.28703

>  <Molecular Complexity>
0.80135

>  <Fragments>
1

>  <Non-H Atoms>
16

>  <Non-C/H Atoms>
1

>  <Metal-Atoms>
0

>  <Electronegative Atoms>
1

>  <Stereo Centers>
4

>  <Rotatable Bonds>
1

>  <Rings Closures>
2

>  <Small Rings>
2

>  <Aromatic Rings>
0

>  <Aromatic Atoms>
0

>  <sp3-Atoms>
14

>  <Symmetric atoms>
1

>  <Amides>
0

>  <Amines>
0

>  <Alkyl-Amines>
0

>  <Aromatic Amines>
0

>  <Aromatic Nitrogens>
0

>  <Basic Nitrogens>
0

>  <Acidic Oxygens>
0

>  <Stereo Configuration>
this enantiomer

> <Gold.Version>
5.8.1

> <Gold.Id.Protein>
ID_2|Prot_COX2_5IKQ_Alig|mol2

> <Gold.Goldscore.Fitness>
45.7537

> <Gold.Goldscore.Internal.Vdw>
-6.9136

> <Gold.Goldscore.Internal.Torsion>
-0.2536

> <Gold.Goldscore.External.Vdw>
33.3239

> <Gold.Goldscore.Internal.HBond>
0.0000

> <Gold.Goldscore.External.HBond>
0.0000

> <Gold.Goldscore.Internal.Correction>
-7.1005

> <Gold.Goldscore.Internal.Vdw.Weighted>
-6.9136

> <Gold.Goldscore.Internal.Torsion.Weighted>
-0.2536

> <Gold.Goldscore.External.Vdw.Weighted>
45.8204

> <Gold.Goldscore.Internal.HBond.Weighted>
0.0000

> <Gold.Goldscore.External.HBond.Weighted>
0.0000

> <Gold.Goldscore.Internal.Correction.Weighted>
-7.1005

> <Gold.Protein.RotatedTorsions>
[ 5077 5068 5067 5065 ] final   53.87 input  179.94 | X-H torsion
[ 5157 5152 5151 5148 ] final  170.99 input -179.92 | X-H torsion
[ 5185 5176 5175 5173 ] final   28.38 input -179.99 | X-H torsion
[ 5712 5703 5702 5700 ] final  128.08 input  180.00 | X-H torsion
[ 8036 8031 8030 8027 ] final -154.37 input -179.94 | X-H torsion
[ 2749 2745 2743 2740 ] final   25.94 input  -60.05 | X-H torsion
[ 1366 1361 1360 1357 ] final  127.29 input  -60.09 | X-H torsion
[ 2556 2551 2550 2547 ] final   48.11 input   59.97 | X-H torsion

> <Gold.Protein.ActiveResidues>
 PRO86   VAL89   HIS90   LEU93   THR94   ILE112  MET113  TYR115  VAL116  LEU117 
 THR118  SER119  ARG120  SER121  LEU123  ILE124  GLN192  SER194  PHE198  PHE201 
 ALA202  GLN203  PHE205  THR206  PHE209  PHE210  VAL228  ILE341  ILE343  VAL344 
 ILE345  GLU346  ASP347  TYR348  VAL349  GLN350  HIS351  LEU352  SER353  GLY354 
 TYR355  PHE357  LEU359  LYS360  GLU380  PHE381  ASN382  THR383  LEU384  TYR385 
 HIS386  TRP387  LEU390  VAL434  LEU507  ARG513  ALA516  ILE517  PHE518  GLY519 
 GLU520  THR521  MET522  VAL523  GLU524  VAL525  GLY526  ALA527  PRO528  PHE529 
 SER530  LEU531  LYS532  GLY533  LEU534  MET535  COH609 

> <Gold.Protein.RotatedAtoms>
   18.6157    6.6225    2.2598 H   0  0  0  0  0  0  0  0  0  0  0  0  # atno 1366 bound_to 1361
    5.1849  -10.1501    7.5801 H   0  0  0  0  0  0  0  0  0  0  0  0  # atno 2556 bound_to 2551
   -4.1769    0.2749    0.6122 H   0  0  0  0  0  0  0  0  0  0  0  0  # atno 2749 bound_to 2745
    0.6484   -1.9235    4.1364 H   0  0  0  0  0  0  0  0  0  0  0  0  # atno 5077 bound_to 5068
   12.5119   -1.4177    9.2077 H   0  0  0  0  0  0  0  0  0  0  0  0  # atno 5157 bound_to 5152
   15.6687   -1.0932    4.6466 H   0  0  0  0  0  0  0  0  0  0  0  0  # atno 5185 bound_to 5176
    3.0514   -0.3037    2.3769 H   0  0  0  0  0  0  0  0  0  0  0  0  # atno 5712 bound_to 5703
    6.0511    3.9311    3.6448 H   0  0  0  0  0  0  0  0  0  0  0  0  # atno 8036 bound_to 8031
    1.7558   -2.9407    4.1513 LP  0  0  0  0  0  0  0  0  0  0  0  0  # atno 8267 bound_to 5068
    1.9522   -1.4245    3.5776 LP  0  0  0  0  0  0  0  0  0  0  0  0  # atno 8268 bound_to 5068
   12.6563   -2.9157    9.2217 LP  0  0  0  0  0  0  0  0  0  0  0  0  # atno 8279 bound_to 5152
   11.2129   -2.1635    9.3534 LP  0  0  0  0  0  0  0  0  0  0  0  0  # atno 8280 bound_to 5152
   16.7146   -0.0846    5.0307 LP  0  0  0  0  0  0  0  0  0  0  0  0  # atno 8281 bound_to 5176
   15.1267    0.2809    4.9233 LP  0  0  0  0  0  0  0  0  0  0  0  0  # atno 8282 bound_to 5176
    1.9005   -1.1334    2.8726 LP  0  0  0  0  0  0  0  0  0  0  0  0  # atno 8283 bound_to 5703
    1.8087    0.4855    2.6796 LP  0  0  0  0  0  0  0  0  0  0  0  0  # atno 8284 bound_to 5703
    4.6422    4.2105    3.2013 LP  0  0  0  0  0  0  0  0  0  0  0  0  # atno 8309 bound_to 8031
    5.7095    5.3927    3.5620 LP  0  0  0  0  0  0  0  0  0  0  0  0  # atno 8310 bound_to 8031
   -3.1246   -0.4855    1.3723 LP  0  0  0  0  0  0  0  0  0  0  0  0  # atno 8323 bound_to 2745
   -3.0839   -0.2966   -0.2492 LP  0  0  0  0  0  0  0  0  0  0  0  0  # atno 8324 bound_to 2745
   17.4956    7.6269    2.2340 LP  0  0  0  0  0  0  0  0  0  0  0  0  # atno 8335 bound_to 1361
   18.4332    7.3786    3.5478 LP  0  0  0  0  0  0  0  0  0  0  0  0  # atno 8336 bound_to 1361
    4.6811   -8.8018    8.0186 LP  0  0  0  0  0  0  0  0  0  0  0  0  # atno 8342 bound_to 2551
    4.6465   -9.2977    6.4631 LP  0  0  0  0  0  0  0  0  0  0  0  0  # atno 8343 bound_to 2551

