
043|LMW3_p|sdf|43|dock1
  -GOLD-   6 722 5113D 1   1.00000     0.00000

 39 42  0  0  0  0  0  0  0  0  1 V2000
   10.2846   -4.3516    4.0128 O   0  0  0  0  0  0  0  0  0  0  0  0
   10.1654   -3.1472    3.8900 C   0  0  0  0  0  0  0  0  0  0  0  0
    8.9942   -2.4661    3.6596 O   0  0  0  0  0  0  0  0  0  0  0  0
   11.2755   -2.1425    3.9486 C   0  0  0  0  0  0  0  0  0  0  0  0
    9.3688   -1.1533    3.2135 C   0  0  2  0  0  0  0  0  0  0  0  0
   12.5726   -2.4516    3.8528 C   0  0  0  0  0  0  0  0  0  0  0  0
   10.5900   -0.8386    4.0817 C   0  0  1  0  0  0  0  0  0  0  0  0
    8.3167   -0.0779    3.3286 C   0  0  1  0  0  0  0  0  0  0  0  0
    9.5654   -1.2410    1.6675 C   0  0  0  0  0  0  0  0  0  0  0  0
   10.2472   -0.7519    5.4812 O   0  0  0  0  0  0  0  0  0  0  0  0
   11.2065    0.5049    3.7144 C   0  0  0  0  0  0  0  0  0  0  0  0
    6.9595   -0.5010    3.2630 O   0  0  0  0  0  0  0  0  0  0  0  0
    8.6880    1.1968    4.0499 C   0  0  1  0  0  0  0  0  0  0  0  0
    7.5333   -0.0223    2.0385 C   0  0  2  0  0  0  0  0  0  0  0  0
    8.1450   -1.0070    1.0701 C   0  0  0  0  0  0  0  0  0  0  0  0
   10.1267    1.6201    3.6286 C   0  0  0  0  0  0  0  0  0  0  0  0
    7.7203    2.3632    3.8442 C   0  0  0  0  0  0  0  0  0  0  0  0
    7.3215   -2.2966    0.9684 C   0  0  0  0  0  0  0  0  0  0  0  0
    8.2705   -0.3894   -0.3296 C   0  0  0  0  0  0  0  0  0  0  0  0
   12.8628   -3.4380    3.7651 H   0  0  0  0  0  0  0  0  0  0  0  0
   13.2837   -1.7039    3.8665 H   0  0  0  0  0  0  0  0  0  0  0  0
    9.9369   -2.2051    1.3892 H   0  0  0  0  0  0  0  0  0  0  0  0
   10.2762   -0.5256    1.3100 H   0  0  0  0  0  0  0  0  0  0  0  0
    9.6649   -1.4907    5.7179 H   0  0  0  0  0  0  0  0  0  0  0  0
   11.6924    0.4171    2.7651 H   0  0  0  0  0  0  0  0  0  0  0  0
   11.9078    0.7731    4.4767 H   0  0  0  0  0  0  0  0  0  0  0  0
    8.6345    0.9710    5.0944 H   0  0  0  0  0  0  0  0  0  0  0  0
    7.1758    0.6756    1.3104 H   0  0  0  0  0  0  0  0  0  0  0  0
   10.0860    1.9620    2.6155 H   0  0  0  0  0  0  0  0  0  0  0  0
   10.4270    2.3731    4.3272 H   0  0  0  0  0  0  0  0  0  0  0  0
    8.0265    3.1915    4.4485 H   0  0  0  0  0  0  0  0  0  0  0  0
    6.7332    2.0617    4.1262 H   0  0  0  0  0  0  0  0  0  0  0  0
    7.7243    2.6525    2.8141 H   0  0  0  0  0  0  0  0  0  0  0  0
    7.7661   -2.9475    0.2448 H   0  0  0  0  0  0  0  0  0  0  0  0
    6.3224   -2.0591    0.6681 H   0  0  0  0  0  0  0  0  0  0  0  0
    7.3015   -2.7831    1.9211 H   0  0  0  0  0  0  0  0  0  0  0  0
    7.2958   -0.2653   -0.7533 H   0  0  0  0  0  0  0  0  0  0  0  0
    8.8511   -1.0360   -0.9539 H   0  0  0  0  0  0  0  0  0  0  0  0
    8.7520    0.5634   -0.2573 H   0  0  0  0  0  0  0  0  0  0  0  0
  1  2  2  0  0  0  0
  2  3  1  0  0  0  0
  2  4  1  0  0  0  0
  4  6  2  0  0  0  0
  4  7  1  0  0  0  0
  5  3  1  0  0  0  0
  5  8  1  0  0  0  0
  5  9  1  0  0  0  0
  5  7  1  0  0  0  0
  6 20  1  0  0  0  0
  6 21  1  0  0  0  0
  7 10  1  0  0  0  0
  7 11  1  0  0  0  0
  8 12  1  0  0  0  0
  8 13  1  0  0  0  0
  8 14  1  0  0  0  0
  9 15  1  0  0  0  0
  9 22  1  0  0  0  0
  9 23  1  0  0  0  0
 10 24  1  0  0  0  0
 11 16  1  0  0  0  0
 11 25  1  0  0  0  0
 11 26  1  0  0  0  0
 12 14  1  0  0  0  0
 13 17  1  0  0  0  0
 13 16  1  0  0  0  0
 13 27  1  0  0  0  0
 14 15  1  0  0  0  0
 14 28  1  0  0  0  0
 15 18  1  0  0  0  0
 15 19  1  0  0  0  0
 16 29  1  0  0  0  0
 16 30  1  0  0  0  0
 17 31  1  0  0  0  0
 17 32  1  0  0  0  0
 17 33  1  0  0  0  0
 18 34  1  0  0  0  0
 18 35  1  0  0  0  0
 18 36  1  0  0  0  0
 19 37  1  0  0  0  0
 19 38  1  0  0  0  0
 19 39  1  0  0  0  0
M  END
>  <Code-name>
043

>  <Compound>
Alliacol A

>  <Specie>
Marasmius alliaceus

>  <Reference>
COTA et al, 2008

>  <Organism>
N/A

>  <Smiles>
C[C@H](CC[C@@]1(C2=C)O)[C@]34O[C@@H]4C(C)(C)C[C@@]13OC2=O

>  <MMFF94 Energy>
88.172

>  <Total Molweight>
264.320

>  <Molweight>
264.320

>  <Monoisotopic Mass>
264.136160

>  <cLogP>
0.7494

>  <cLogS>
-2.504

>  <H-Acceptors>
4

>  <H-Donors>
1

>  <Total Surface Area>
178.7

>  <Relative PSA>
0.30101

>  <Polar Surface Area>
59.06

>  <Druglikeness>
-8.6844

>  <Mutagenic>
none

>  <Tumorigenic>
high

>  <Reproductive Effective>
none

>  <Irritant>
high

>  <Nasty Functions>
oxiran/aziridine

>  <Shape Index>
0.36842

>  <Molecular Flexibility>
0.10307

>  <Molecular Complexity>
1.0256

>  <Fragments>
1

>  <Non-H Atoms>
19

>  <Non-C/H Atoms>
4

>  <Metal-Atoms>
0

>  <Electronegative Atoms>
4

>  <Stereo Centers>
5

>  <Rotatable Bonds>
0

>  <Rings Closures>
4

>  <Small Rings>
5

>  <Aromatic Rings>
0

>  <Aromatic Atoms>
0

>  <sp3-Atoms>
15

>  <Symmetric atoms>
1

>  <Amides>
0

>  <Amines>
0

>  <Alkyl-Amines>
0

>  <Aromatic Amines>
0

>  <Aromatic Nitrogens>
0

>  <Basic Nitrogens>
0

>  <Acidic Oxygens>
0

>  <Stereo Configuration>
this enantiomer

> <Gold.Version>
5.8.1

> <Gold.Id.Protein>
ID_2|Prot_COX2_5IKQ_Alig|mol2

> <Gold.Goldscore.Fitness>
36.2201

> <Gold.Goldscore.Internal.Vdw>
-4.6744

> <Gold.Goldscore.Internal.Torsion>
-0.4709

> <Gold.Goldscore.External.Vdw>
27.3101

> <Gold.Goldscore.Internal.HBond>
0.0000

> <Gold.Goldscore.External.HBond>
0.0000

> <Gold.Goldscore.Internal.Correction>
-3.8140

> <Gold.Goldscore.Internal.Vdw.Weighted>
-4.6744

> <Gold.Goldscore.Internal.Torsion.Weighted>
-0.4709

> <Gold.Goldscore.External.Vdw.Weighted>
37.5514

> <Gold.Goldscore.Internal.HBond.Weighted>
0.0000

> <Gold.Goldscore.External.HBond.Weighted>
0.0000

> <Gold.Goldscore.Internal.Correction.Weighted>
-3.8140

> <Gold.Protein.RotatedTorsions>
[ 5077 5068 5067 5065 ] final    8.44 input  179.94 | X-H torsion
[ 5157 5152 5151 5148 ] final  -95.94 input -179.92 | X-H torsion
[ 5185 5176 5175 5173 ] final  135.34 input -179.99 | X-H torsion
[ 5712 5703 5702 5700 ] final  138.93 input  180.00 | X-H torsion
[ 8036 8031 8030 8027 ] final  -51.49 input -179.94 | X-H torsion
[ 2749 2745 2743 2740 ] final -159.96 input  -60.05 | X-H torsion
[ 1366 1361 1360 1357 ] final  -81.49 input  -60.09 | X-H torsion
[ 2556 2551 2550 2547 ] final   36.52 input   59.97 | X-H torsion

> <Gold.Protein.ActiveResidues>
 PRO86   VAL89   HIS90   LEU93   THR94   ILE112  MET113  TYR115  VAL116  LEU117 
 THR118  SER119  ARG120  SER121  LEU123  ILE124  GLN192  SER194  PHE198  PHE201 
 ALA202  GLN203  PHE205  THR206  PHE209  PHE210  VAL228  ILE341  ILE343  VAL344 
 ILE345  GLU346  ASP347  TYR348  VAL349  GLN350  HIS351  LEU352  SER353  GLY354 
 TYR355  PHE357  LEU359  LYS360  GLU380  PHE381  ASN382  THR383  LEU384  TYR385 
 HIS386  TRP387  LEU390  VAL434  LEU507  ARG513  ALA516  ILE517  PHE518  GLY519 
 GLU520  THR521  MET522  VAL523  GLU524  VAL525  GLY526  ALA527  PRO528  PHE529 
 SER530  LEU531  LYS532  GLY533  LEU534  MET535  COH609 

> <Gold.Protein.RotatedAtoms>
   18.1040    7.6339    3.2890 H   0  0  0  0  0  0  0  0  0  0  0  0  # atno 1366 bound_to 1361
    5.1811  -10.0881    7.7272 H   0  0  0  0  0  0  0  0  0  0  0  0  # atno 2556 bound_to 2551
   -2.8097   -0.5002    0.4744 H   0  0  0  0  0  0  0  0  0  0  0  0  # atno 2749 bound_to 2745
    0.8077   -2.4914    4.2911 H   0  0  0  0  0  0  0  0  0  0  0  0  # atno 5077 bound_to 5068
   11.4309   -1.7933    9.2949 H   0  0  0  0  0  0  0  0  0  0  0  0  # atno 5157 bound_to 5152
   15.1347    0.0275    4.8974 H   0  0  0  0  0  0  0  0  0  0  0  0  # atno 5185 bound_to 5176
    3.0296   -0.1570    2.3633 H   0  0  0  0  0  0  0  0  0  0  0  0  # atno 5712 bound_to 5703
    5.8954    5.1527    3.5818 H   0  0  0  0  0  0  0  0  0  0  0  0  # atno 8036 bound_to 8031
    2.2505   -2.4873    3.8672 LP  0  0  0  0  0  0  0  0  0  0  0  0  # atno 8267 bound_to 5068
    1.2667   -1.1980    3.6764 LP  0  0  0  0  0  0  0  0  0  0  0  0  # atno 8268 bound_to 5068
   12.9174   -1.5713    9.2157 LP  0  0  0  0  0  0  0  0  0  0  0  0  # atno 8279 bound_to 5152
   12.2447   -3.0587    9.2550 LP  0  0  0  0  0  0  0  0  0  0  0  0  # atno 8280 bound_to 5152
   15.8570   -1.2518    4.5804 LP  0  0  0  0  0  0  0  0  0  0  0  0  # atno 8281 bound_to 5176
   16.6255    0.1024    5.0725 LP  0  0  0  0  0  0  0  0  0  0  0  0  # atno 8282 bound_to 5176
    2.0601   -1.2038    2.8355 LP  0  0  0  0  0  0  0  0  0  0  0  0  # atno 8283 bound_to 5703
    1.6753    0.3798    2.7329 LP  0  0  0  0  0  0  0  0  0  0  0  0  # atno 8284 bound_to 5703
    5.9314    3.6515    3.6519 LP  0  0  0  0  0  0  0  0  0  0  0  0  # atno 8309 bound_to 8031
    4.6071    4.4862    3.1870 LP  0  0  0  0  0  0  0  0  0  0  0  0  # atno 8310 bound_to 8031
   -3.9755    0.2088   -0.1593 LP  0  0  0  0  0  0  0  0  0  0  0  0  # atno 8323 bound_to 2745
   -3.8704   -0.0626    1.4475 LP  0  0  0  0  0  0  0  0  0  0  0  0  # atno 8324 bound_to 2745
   18.8749    6.5056    2.6593 LP  0  0  0  0  0  0  0  0  0  0  0  0  # atno 8335 bound_to 1361
   17.6661    7.2900    1.8912 LP  0  0  0  0  0  0  0  0  0  0  0  0  # atno 8336 bound_to 1361
    4.6101   -8.7034    7.8715 LP  0  0  0  0  0  0  0  0  0  0  0  0  # atno 8342 bound_to 2551
    4.7220   -9.4703    6.4342 LP  0  0  0  0  0  0  0  0  0  0  0  0  # atno 8343 bound_to 2551

