
046|LMW3_p|sdf|46|dock1
  -GOLD-   6 722 5133D 1   1.00000     0.00000

 72 78  0  0  0  0  0  0  0  0  3 V2000
   13.5763    0.3937    2.3052 O   0  0  0  0  0  0  0  0  0  0  0  0
   12.7265    0.6980    3.1400 C   0  0  0  0  0  0  0  0  0  0  0  0
   12.8664    1.9583    3.9296 C   0  0  0  0  0  0  0  0  0  0  0  0
   11.5454   -0.1971    3.5516 C   0  0  1  0  0  0  0  0  0  0  0  0
   14.1049    2.2574    4.3698 C   0  0  0  0  0  0  0  0  0  0  0  0
   11.5841    2.7486    4.1884 C   0  0  1  0  0  0  0  0  0  0  0  0
   11.2926   -1.3692    2.8138 O   0  0  0  0  0  0  0  0  0  0  0  0
   11.7717   -0.6289    4.8907 O   0  0  0  0  0  0  0  0  0  0  0  0
   10.2532    0.6361    3.4790 C   0  0  2  0  0  0  0  0  0  0  0  0
   15.2325    1.5199    4.0350 O   0  5  0  0  0  0  0  0  0  0  0  0
   14.3144    3.4177    5.2946 C   0  0  0  0  0  0  0  0  0  0  0  0
   10.3232    1.8141    4.4915 C   0  0  2  0  0  0  0  0  0  0  0  0
   11.7304    3.7791    5.3097 C   0  0  2  0  0  0  0  0  0  0  0  0
   11.3608    3.5599    2.8743 C   0  0  0  0  0  0  0  0  0  0  0  0
    9.8695   -1.5460    2.7007 C   0  0  1  0  0  0  0  0  0  0  0  0
    9.2168   -0.5025    3.6125 C   0  0  2  0  0  0  0  0  0  0  0  0
   15.4257    3.7924    5.6450 O   0  0  0  0  0  0  0  0  0  0  0  0
   13.1162    4.1469    5.7786 C   0  0  1  0  0  0  0  0  0  0  0  0
    9.0181    2.6186    4.5517 C   0  0  0  0  0  0  0  0  0  0  0  0
   12.1315    3.5178    6.7613 C   0  0  0  0  0  0  0  0  0  0  0  0
    9.4975   -1.4076    1.2234 C   0  0  0  0  0  0  0  0  0  0  0  0
    7.7358   -0.1831    3.2931 C   0  0  1  0  0  0  0  0  0  0  0  0
   11.5372    4.4394    7.8056 C   0  0  0  0  0  0  0  0  0  0  0  0
   12.3830    2.1328    7.3053 C   0  0  0  0  0  0  0  0  0  0  0  0
   10.2949   -1.6755    0.3215 O   0  0  0  0  0  0  0  0  0  0  0  0
    8.1214   -0.9308    0.8767 C   0  0  0  0  0  0  0  0  0  0  0  0
    7.1183   -0.8862    2.0225 C   0  0  2  0  0  0  0  0  0  0  0  0
    6.8873   -0.4368    4.5594 C   0  0  0  0  0  0  0  0  0  0  0  0
    7.8667   -0.6138   -0.4138 C   0  0  0  0  0  0  0  0  0  0  0  0
    5.8107   -0.1619    1.6728 C   0  0  1  0  0  0  0  0  0  0  0  0
    6.7193   -2.3681    2.2987 C   0  0  0  0  0  0  0  0  0  0  0  0
    8.8063   -0.6994   -1.4319 O   0  5  0  0  0  0  0  0  0  0  0  0
    6.5097   -0.1304   -0.8330 C   0  0  0  0  0  0  0  0  0  0  0  0
    5.6343    1.2812    1.1858 C   0  0  0  0  0  0  0  0  0  0  0  0
    5.5015    0.1046    0.2249 C   0  0  2  0  0  0  0  0  0  0  0  0
    6.2027    0.0589   -2.0025 O   0  0  0  0  0  0  0  0  0  0  0  0
    4.3489    1.9796    1.5773 C   0  0  0  0  0  0  0  0  0  0  0  0
    6.7795    2.2505    1.0184 C   0  0  0  0  0  0  0  0  0  0  0  0
   12.6044   -1.1245    4.9343 H   0  0  0  0  0  0  0  0  0  0  0  0
   10.0161    1.2128    2.6095 H   0  0  0  0  0  0  0  0  0  0  0  0
   10.4529    1.3878    5.4643 H   0  0  0  0  0  0  0  0  0  0  0  0
   10.8689    4.2560    4.8908 H   0  0  0  0  0  0  0  0  0  0  0  0
   12.1583    4.2621    2.7488 H   0  0  0  0  0  0  0  0  0  0  0  0
   10.4299    4.0841    2.9326 H   0  0  0  0  0  0  0  0  0  0  0  0
   11.3412    2.8898    2.0403 H   0  0  0  0  0  0  0  0  0  0  0  0
    9.5249   -2.5091    3.0148 H   0  0  0  0  0  0  0  0  0  0  0  0
    9.0566   -0.8017    4.6272 H   0  0  0  0  0  0  0  0  0  0  0  0
   13.7051    5.0403    5.7735 H   0  0  0  0  0  0  0  0  0  0  0  0
    8.2132    1.9719    4.8322 H   0  0  0  0  0  0  0  0  0  0  0  0
    8.8162    3.0432    3.5906 H   0  0  0  0  0  0  0  0  0  0  0  0
    9.1149    3.4017    5.2744 H   0  0  0  0  0  0  0  0  0  0  0  0
    7.7155    0.8497    3.0138 H   0  0  0  0  0  0  0  0  0  0  0  0
   12.1919    4.4903    8.6504 H   0  0  0  0  0  0  0  0  0  0  0  0
   10.5850    4.0614    8.1144 H   0  0  0  0  0  0  0  0  0  0  0  0
   11.4148    5.4176    7.3897 H   0  0  0  0  0  0  0  0  0  0  0  0
   13.2189    2.1582    7.9728 H   0  0  0  0  0  0  0  0  0  0  0  0
   12.5926    1.4645    6.4964 H   0  0  0  0  0  0  0  0  0  0  0  0
   11.5157    1.7938    7.8324 H   0  0  0  0  0  0  0  0  0  0  0  0
    5.8664   -0.1857    4.3609 H   0  0  0  0  0  0  0  0  0  0  0  0
    7.2540    0.1688    5.3617 H   0  0  0  0  0  0  0  0  0  0  0  0
    6.9542   -1.4692    4.8326 H   0  0  0  0  0  0  0  0  0  0  0  0
    5.3880   -0.6764    2.5103 H   0  0  0  0  0  0  0  0  0  0  0  0
    6.1084   -2.4153    3.1760 H   0  0  0  0  0  0  0  0  0  0  0  0
    7.6025   -2.9535    2.4471 H   0  0  0  0  0  0  0  0  0  0  0  0
    6.1732   -2.7522    1.4626 H   0  0  0  0  0  0  0  0  0  0  0  0
    4.7473   -0.2327   -0.4550 H   0  0  0  0  0  0  0  0  0  0  0  0
    3.6186    1.2505    1.8600 H   0  0  0  0  0  0  0  0  0  0  0  0
    3.9839    2.5467    0.7466 H   0  0  0  0  0  0  0  0  0  0  0  0
    4.5362    2.6352    2.4020 H   0  0  0  0  0  0  0  0  0  0  0  0
    7.0711    2.6270    1.9766 H   0  0  0  0  0  0  0  0  0  0  0  0
    6.4707    3.0632    0.3948 H   0  0  0  0  0  0  0  0  0  0  0  0
    7.6085    1.7482    0.5652 H   0  0  0  0  0  0  0  0  0  0  0  0
  1  2  2  0  0  0  0
  2  3  1  0  0  0  0
  2  4  1  0  0  0  0
  3  5  2  0  0  0  0
  3  6  1  0  0  0  0
  4  7  1  0  0  0  0
  4  8  1  0  0  0  0
  4  9  1  0  0  0  0
  5 10  1  0  0  0  0
  5 11  1  0  0  0  0
  6 12  1  0  0  0  0
  6 13  1  0  0  0  0
  6 14  1  0  0  0  0
  7 15  1  0  0  0  0
  8 39  1  0  0  0  0
  9 16  1  0  0  0  0
  9 12  1  0  0  0  0
  9 40  1  0  0  0  0
 11 17  2  0  0  0  0
 11 18  1  0  0  0  0
 12 19  1  0  0  0  0
 12 41  1  0  0  0  0
 13 20  1  0  0  0  0
 13 18  1  0  0  0  0
 13 42  1  0  0  0  0
 14 43  1  0  0  0  0
 14 44  1  0  0  0  0
 14 45  1  0  0  0  0
 15 21  1  0  0  0  0
 15 16  1  0  0  0  0
 15 46  1  0  0  0  0
 16 22  1  0  0  0  0
 16 47  1  0  0  0  0
 18 20  1  0  0  0  0
 18 48  1  0  0  0  0
 19 49  1  0  0  0  0
 19 50  1  0  0  0  0
 19 51  1  0  0  0  0
 20 23  1  0  0  0  0
 20 24  1  0  0  0  0
 21 25  2  0  0  0  0
 21 26  1  0  0  0  0
 22 27  1  0  0  0  0
 22 28  1  0  0  0  0
 22 52  1  0  0  0  0
 23 53  1  0  0  0  0
 23 54  1  0  0  0  0
 23 55  1  0  0  0  0
 24 56  1  0  0  0  0
 24 57  1  0  0  0  0
 24 58  1  0  0  0  0
 26 29  2  0  0  0  0
 26 27  1  0  0  0  0
 27 30  1  0  0  0  0
 27 31  1  0  0  0  0
 28 59  1  0  0  0  0
 28 60  1  0  0  0  0
 28 61  1  0  0  0  0
 29 32  1  0  0  0  0
 29 33  1  0  0  0  0
 30 34  1  0  0  0  0
 30 35  1  0  0  0  0
 30 62  1  0  0  0  0
 31 63  1  0  0  0  0
 31 64  1  0  0  0  0
 31 65  1  0  0  0  0
 33 36  2  0  0  0  0
 33 35  1  0  0  0  0
 34 37  1  0  0  0  0
 34 38  1  0  0  0  0
 34 35  1  0  0  0  0
 35 66  1  0  0  0  0
 37 67  1  0  0  0  0
 37 68  1  0  0  0  0
 37 69  1  0  0  0  0
 38 70  1  0  0  0  0
 38 71  1  0  0  0  0
 38 72  1  0  0  0  0
M  CHG  1  10  -1
M  CHG  1  32  -1
M  END
>  <Code-name>
046

>  <Compound>
Aurisina K

>  <Specie>
Neonothopanus nambi

>  <Reference>
KANOKMEDHAKUL et al., 2013

>  <Organism>
Antitumoral Activity

>  <Smiles>
C[C@@H]([C@H]([C@H]1[C@H](C)[C@@](C)([C@H]2C(C)(C)[C@H]2C2=O)C(C3=O)=C2O)[C@@H](C2=O)O[C@]13O)[C@@](C)([C@H]1C(C)(C)[C@H]1C1=O)C2=C1O

>  <MMFF94 Energy>
242.48

>  <Total Molweight>
524.608

>  <Molweight>
524.608

>  <Monoisotopic Mass>
524.241020

>  <cLogP>
2.1313

>  <cLogS>
-4.456

>  <H-Acceptors>
8

>  <H-Donors>
3

>  <Total Surface Area>
327.52

>  <Relative PSA>
0.30978

>  <Polar Surface Area>
138.2

>  <Druglikeness>
-0.47172

>  <Mutagenic>
high

>  <Tumorigenic>
high

>  <Reproductive Effective>
high

>  <Irritant>
high

>  <Nasty Functions>


>  <Shape Index>
0.34211

>  <Molecular Flexibility>
0.16639

>  <Molecular Complexity>
1.1117

>  <Fragments>
1

>  <Non-H Atoms>
38

>  <Non-C/H Atoms>
8

>  <Metal-Atoms>
0

>  <Electronegative Atoms>
8

>  <Stereo Centers>
12

>  <Rotatable Bonds>
0

>  <Rings Closures>
7

>  <Small Rings>
9

>  <Aromatic Rings>
0

>  <Aromatic Atoms>
0

>  <sp3-Atoms>
26

>  <Symmetric atoms>
2

>  <Amides>
0

>  <Amines>
0

>  <Alkyl-Amines>
0

>  <Aromatic Amines>
0

>  <Aromatic Nitrogens>
0

>  <Basic Nitrogens>
0

>  <Acidic Oxygens>
0

>  <Stereo Configuration>
this enantiomer

> <Gold.Version>
5.8.1

> <Gold.Id.Protein>
ID_2|Prot_COX2_5IKQ_Alig|mol2

> <Gold.Goldscore.Fitness>
-134.2368

> <Gold.Goldscore.Internal.Vdw>
-36.7720

> <Gold.Goldscore.Internal.Torsion>
-3.6493

> <Gold.Goldscore.External.Vdw>
-98.9986

> <Gold.Goldscore.Internal.HBond>
0.0000

> <Gold.Goldscore.External.HBond>
3.7103

> <Gold.Goldscore.Internal.Correction>
-38.5974

> <Gold.Goldscore.Hbonds>
donor molecule, donor type, donor heavy atom, donor atom, acceptor molecule, acceptor atom, score
      P1  H  1374  1386       L1    17  0.16
      P1  H  1377  1389       L1    10  0.07
      P1  H  5176  5185       L1    10  0.34

> <Gold.Goldscore.Internal.Vdw.Weighted>
-36.7720

> <Gold.Goldscore.Internal.Torsion.Weighted>
-3.6493

> <Gold.Goldscore.External.Vdw.Weighted>
-136.1231

> <Gold.Goldscore.Internal.HBond.Weighted>
0.0000

> <Gold.Goldscore.External.HBond.Weighted>
3.7103

> <Gold.Goldscore.Internal.Correction.Weighted>
-38.5974

> <Gold.Protein.RotatedTorsions>
[ 5077 5068 5067 5065 ] final -133.42 input  179.94 | X-H torsion
[ 5157 5152 5151 5148 ] final -162.86 input -179.92 | X-H torsion
[ 5185 5176 5175 5173 ] final  173.59 input -179.99 | X-H torsion
[ 5712 5703 5702 5700 ] final   85.64 input  180.00 | X-H torsion
[ 8036 8031 8030 8027 ] final -136.03 input -179.94 | X-H torsion
[ 2749 2745 2743 2740 ] final  -21.08 input  -60.05 | X-H torsion
[ 1366 1361 1360 1357 ] final   61.08 input  -60.09 | X-H torsion
[ 2556 2551 2550 2547 ] final  -45.98 input   59.97 | X-H torsion

> <Gold.Protein.ActiveResidues>
 PRO86   VAL89   HIS90   LEU93   THR94   ILE112  MET113  TYR115  VAL116  LEU117 
 THR118  SER119  ARG120  SER121  LEU123  ILE124  GLN192  SER194  PHE198  PHE201 
 ALA202  GLN203  PHE205  THR206  PHE209  PHE210  VAL228  ILE341  ILE343  VAL344 
 ILE345  GLU346  ASP347  TYR348  VAL349  GLN350  HIS351  LEU352  SER353  GLY354 
 TYR355  PHE357  LEU359  LYS360  GLU380  PHE381  ASN382  THR383  LEU384  TYR385 
 HIS386  TRP387  LEU390  VAL434  LEU507  ARG513  ALA516  ILE517  PHE518  GLY519 
 GLU520  THR521  MET522  VAL523  GLU524  VAL525  GLY526  ALA527  PRO528  PHE529 
 SER530  LEU531  LYS532  GLY533  LEU534  MET535  COH609 

> <Gold.Protein.RotatedAtoms>
   17.9683    7.0725    1.9079 H   0  0  0  0  0  0  0  0  0  0  0  0  # atno 1366 bound_to 1361
    4.8255   -9.1856    8.1082 H   0  0  0  0  0  0  0  0  0  0  0  0  # atno 2556 bound_to 2551
   -3.9735    0.0829    1.1770 H   0  0  0  0  0  0  0  0  0  0  0  0  # atno 2749 bound_to 2745
    2.1762   -2.1351    3.8150 H   0  0  0  0  0  0  0  0  0  0  0  0  # atno 5077 bound_to 5068
   12.1667   -1.3290    9.2380 H   0  0  0  0  0  0  0  0  0  0  0  0  # atno 5157 bound_to 5152
   15.5119    0.3496    5.0404 H   0  0  0  0  0  0  0  0  0  0  0  0  # atno 5185 bound_to 5176
    2.8833   -0.8352    2.4981 H   0  0  0  0  0  0  0  0  0  0  0  0  # atno 5712 bound_to 5703
    6.1860    4.1383    3.6900 H   0  0  0  0  0  0  0  0  0  0  0  0  # atno 8036 bound_to 8031
    0.9367   -1.2839    3.7912 LP  0  0  0  0  0  0  0  0  0  0  0  0  # atno 8267 bound_to 5068
    0.9417   -2.8280    4.3225 LP  0  0  0  0  0  0  0  0  0  0  0  0  # atno 8268 bound_to 5068
   12.9544   -2.6109    9.2001 LP  0  0  0  0  0  0  0  0  0  0  0  0  # atno 8279 bound_to 5152
   11.3277   -2.5744    9.3387 LP  0  0  0  0  0  0  0  0  0  0  0  0  # atno 8280 bound_to 5152
   15.2717   -1.0537    4.5591 LP  0  0  0  0  0  0  0  0  0  0  0  0  # atno 8281 bound_to 5176
   16.7578   -0.4825    4.9221 LP  0  0  0  0  0  0  0  0  0  0  0  0  # atno 8282 bound_to 5176
    1.4610   -0.6138    2.9304 LP  0  0  0  0  0  0  0  0  0  0  0  0  # atno 8283 bound_to 5703
    2.4500    0.6037    2.4762 LP  0  0  0  0  0  0  0  0  0  0  0  0  # atno 8284 bound_to 5703
    4.7638    3.9390    3.2454 LP  0  0  0  0  0  0  0  0  0  0  0  0  # atno 8309 bound_to 8031
    5.4261    5.4156    3.4637 LP  0  0  0  0  0  0  0  0  0  0  0  0  # atno 8310 bound_to 8031
   -2.7223   -0.6379    0.7544 LP  0  0  0  0  0  0  0  0  0  0  0  0  # atno 8323 bound_to 2745
   -3.7298    0.0857   -0.3076 LP  0  0  0  0  0  0  0  0  0  0  0  0  # atno 8324 bound_to 2745
   17.7947    7.8223    3.2008 LP  0  0  0  0  0  0  0  0  0  0  0  0  # atno 8335 bound_to 1361
   18.9086    6.6449    3.0020 LP  0  0  0  0  0  0  0  0  0  0  0  0  # atno 8336 bound_to 1361
    4.5158   -8.9470    6.6551 LP  0  0  0  0  0  0  0  0  0  0  0  0  # atno 8342 bound_to 2551
    5.2418  -10.3065    7.1948 LP  0  0  0  0  0  0  0  0  0  0  0  0  # atno 8343 bound_to 2551

