
047|LMW3_p|sdf|47|dock2
  -GOLD-   6 722 5143D 1   1.00000     0.00000

 37 39  0  0  0  0  0  0  0  0  1 V2000
   12.8853   -0.0674    4.4642 O   0  0  0  0  0  0  0  0  0  0  0  0
   11.9036   -0.5073    3.9138 C   0  0  0  0  0  0  0  0  0  0  0  0
   10.6398    0.0381    3.1554 C   0  0  2  0  0  0  0  0  0  0  0  0
   11.3201   -1.9641    3.7277 C   0  0  0  0  0  0  0  0  0  0  0  0
   10.0445    1.3269    3.5195 C   0  0  0  0  0  0  0  0  0  0  0  0
    9.9361   -1.2358    3.7887 C   0  0  2  0  0  0  0  0  0  0  0  0
    8.7136    1.5292    3.4812 C   0  0  0  0  0  0  0  0  0  0  0  0
   10.9069    2.5155    3.7445 C   0  0  0  0  0  0  0  0  0  0  0  0
    8.8617   -1.8047    2.8504 C   0  0  1  0  0  0  0  0  0  0  0  0
    9.4510   -1.2195    5.2510 C   0  0  0  0  0  0  0  0  0  0  0  0
    7.5445    0.6238    3.1798 C   0  0  0  0  0  0  0  0  0  0  0  0
   10.4438    3.6299    3.9461 O   0  0  0  0  0  0  0  0  0  0  0  0
    7.7571   -0.7534    2.5315 C   0  0  1  0  0  0  0  0  0  0  0  0
    9.1967   -1.9123    1.3517 C   0  0  0  0  0  0  0  0  0  0  0  0
    8.0512   -0.9231    0.9978 C   0  0  0  0  0  0  0  0  0  0  0  0
    8.5006    0.3068    0.2135 C   0  0  0  0  0  0  0  0  0  0  0  0
    6.8968   -1.6180    0.2610 C   0  0  0  0  0  0  0  0  0  0  0  0
   10.6816    0.2868    2.1155 H   0  0  0  0  0  0  0  0  0  0  0  0
   11.5174   -2.6441    4.5299 H   0  0  0  0  0  0  0  0  0  0  0  0
   11.6094   -2.6216    2.9347 H   0  0  0  0  0  0  0  0  0  0  0  0
    8.4376    2.4986    3.7025 H   0  0  0  0  0  0  0  0  0  0  0  0
   11.9320    2.3971    3.7302 H   0  0  0  0  0  0  0  0  0  0  0  0
    8.6675   -2.7142    3.3794 H   0  0  0  0  0  0  0  0  0  0  0  0
    9.4958   -2.2102    5.6528 H   0  0  0  0  0  0  0  0  0  0  0  0
    8.4422   -0.8648    5.2881 H   0  0  0  0  0  0  0  0  0  0  0  0
   10.0782   -0.5721    5.8276 H   0  0  0  0  0  0  0  0  0  0  0  0
    6.8964    1.1706    2.5272 H   0  0  0  0  0  0  0  0  0  0  0  0
    7.1841    0.3719    4.1553 H   0  0  0  0  0  0  0  0  0  0  0  0
    6.7944   -0.8972    2.9759 H   0  0  0  0  0  0  0  0  0  0  0  0
    9.0619   -2.8937    0.9471 H   0  0  0  0  0  0  0  0  0  0  0  0
   10.1927   -1.7181    1.0127 H   0  0  0  0  0  0  0  0  0  0  0  0
    7.6423    0.8655   -0.0962 H   0  0  0  0  0  0  0  0  0  0  0  0
    9.0548   -0.0025   -0.6480 H   0  0  0  0  0  0  0  0  0  0  0  0
    9.1199    0.9194    0.8348 H   0  0  0  0  0  0  0  0  0  0  0  0
    6.0535   -0.9606    0.2188 H   0  0  0  0  0  0  0  0  0  0  0  0
    6.6265   -2.5117    0.7839 H   0  0  0  0  0  0  0  0  0  0  0  0
    7.2059   -1.8659   -0.7329 H   0  0  0  0  0  0  0  0  0  0  0  0
  1  2  2  0  0  0  0
  2  3  1  0  0  0  0
  2  4  1  0  0  0  0
  3  5  1  0  0  0  0
  3  6  1  0  0  0  0
  3 18  1  0  0  0  0
  4  6  1  0  0  0  0
  4 19  1  0  0  0  0
  4 20  1  0  0  0  0
  5  7  2  0  0  0  0
  5  8  1  0  0  0  0
  6  9  1  0  0  0  0
  6 10  1  0  0  0  0
  7 11  1  0  0  0  0
  7 21  1  0  0  0  0
  8 12  2  0  0  0  0
  8 22  1  0  0  0  0
  9 13  1  0  0  0  0
  9 14  1  0  0  0  0
  9 23  1  0  0  0  0
 10 24  1  0  0  0  0
 10 25  1  0  0  0  0
 10 26  1  0  0  0  0
 11 13  1  0  0  0  0
 11 27  1  0  0  0  0
 11 28  1  0  0  0  0
 13 15  1  0  0  0  0
 13 29  1  0  0  0  0
 14 15  1  0  0  0  0
 14 30  1  0  0  0  0
 14 31  1  0  0  0  0
 15 16  1  0  0  0  0
 15 17  1  0  0  0  0
 16 32  1  0  0  0  0
 16 33  1  0  0  0  0
 16 34  1  0  0  0  0
 17 35  1  0  0  0  0
 17 36  1  0  0  0  0
 17 37  1  0  0  0  0
M  END
>  <Code-name>
047

>  <Compound>
Colibial

>  <Specie>
Collybia confluens

>  <Reference>
COTA et al, 2008

>  <Organism>
Cytotoxic Activity

>  <Smiles>
CC(C)(C1)[C@H]2[C@@H]1[C@@](C)(CC1=O)[C@H]1C(C=O)=CC2

>  <MMFF94 Energy>
73.859

>  <Total Molweight>
232.322

>  <Molweight>
232.322

>  <Monoisotopic Mass>
232.146330

>  <cLogP>
2.1345

>  <cLogS>
-3.002

>  <H-Acceptors>
2

>  <H-Donors>
0

>  <Total Surface Area>
171.38

>  <Relative PSA>
0.15218

>  <Polar Surface Area>
34.14

>  <Druglikeness>
-2.8158

>  <Mutagenic>
none

>  <Tumorigenic>
none

>  <Reproductive Effective>
none

>  <Irritant>
high

>  <Nasty Functions>


>  <Shape Index>
0.47059

>  <Molecular Flexibility>
0.17772

>  <Molecular Complexity>
0.85734

>  <Fragments>
1

>  <Non-H Atoms>
17

>  <Non-C/H Atoms>
2

>  <Metal-Atoms>
0

>  <Electronegative Atoms>
2

>  <Stereo Centers>
4

>  <Rotatable Bonds>
1

>  <Rings Closures>
3

>  <Small Rings>
3

>  <Aromatic Rings>
0

>  <Aromatic Atoms>
0

>  <sp3-Atoms>
11

>  <Symmetric atoms>
1

>  <Amides>
0

>  <Amines>
0

>  <Alkyl-Amines>
0

>  <Aromatic Amines>
0

>  <Aromatic Nitrogens>
0

>  <Basic Nitrogens>
0

>  <Acidic Oxygens>
0

>  <Stereo Configuration>
this enantiomer

> <Gold.Version>
5.8.1

> <Gold.Id.Protein>
ID_2|Prot_COX2_5IKQ_Alig|mol2

> <Gold.Goldscore.Fitness>
41.1317

> <Gold.Goldscore.Internal.Vdw>
-4.6967

> <Gold.Goldscore.Internal.Torsion>
-1.3907

> <Gold.Goldscore.External.Vdw>
28.8906

> <Gold.Goldscore.Internal.HBond>
0.0000

> <Gold.Goldscore.External.HBond>
1.6021

> <Gold.Goldscore.Internal.Correction>
-5.8925

> <Gold.Goldscore.Hbonds>
donor molecule, donor type, donor heavy atom, donor atom, acceptor molecule, acceptor atom, score
      P1  H  5176  5185       L1     1  0.80

> <Gold.Goldscore.Internal.Vdw.Weighted>
-4.6967

> <Gold.Goldscore.Internal.Torsion.Weighted>
-1.3907

> <Gold.Goldscore.External.Vdw.Weighted>
39.7246

> <Gold.Goldscore.Internal.HBond.Weighted>
0.0000

> <Gold.Goldscore.External.HBond.Weighted>
1.6021

> <Gold.Goldscore.Internal.Correction.Weighted>
-5.8925

> <Gold.Protein.RotatedTorsions>
[ 5077 5068 5067 5065 ] final   23.83 input  179.94 | X-H torsion
[ 5157 5152 5151 5148 ] final  -91.79 input -179.92 | X-H torsion
[ 5185 5176 5175 5173 ] final  110.38 input -179.99 | X-H torsion
[ 5712 5703 5702 5700 ] final  116.93 input  180.00 | X-H torsion
[ 8036 8031 8030 8027 ] final -163.18 input -179.94 | X-H torsion
[ 2749 2745 2743 2740 ] final   31.83 input  -60.05 | X-H torsion
[ 1366 1361 1360 1357 ] final  -87.38 input  -60.09 | X-H torsion
[ 2556 2551 2550 2547 ] final -102.66 input   59.97 | X-H torsion

> <Gold.Protein.ActiveResidues>
 PRO86   VAL89   HIS90   LEU93   THR94   ILE112  MET113  TYR115  VAL116  LEU117 
 THR118  SER119  ARG120  SER121  LEU123  ILE124  GLN192  SER194  PHE198  PHE201 
 ALA202  GLN203  PHE205  THR206  PHE209  PHE210  VAL228  ILE341  ILE343  VAL344 
 ILE345  GLU346  ASP347  TYR348  VAL349  GLN350  HIS351  LEU352  SER353  GLY354 
 TYR355  PHE357  LEU359  LYS360  GLU380  PHE381  ASN382  THR383  LEU384  TYR385 
 HIS386  TRP387  LEU390  VAL434  LEU507  ARG513  ALA516  ILE517  PHE518  GLY519 
 GLU520  THR521  MET522  VAL523  GLU524  VAL525  GLY526  ALA527  PRO528  PHE529 
 SER530  LEU531  LYS532  GLY533  LEU534  MET535  COH609 

> <Gold.Protein.RotatedAtoms>
   18.1647    7.5927    3.3238 H   0  0  0  0  0  0  0  0  0  0  0  0  # atno 1366 bound_to 1361
    4.5357   -8.7654    7.5582 H   0  0  0  0  0  0  0  0  0  0  0  0  # atno 2556 bound_to 2551
   -4.1713    0.2822    0.5316 H   0  0  0  0  0  0  0  0  0  0  0  0  # atno 2749 bound_to 2745
    0.7031   -2.3110    4.2559 H   0  0  0  0  0  0  0  0  0  0  0  0  # atno 5077 bound_to 5068
   11.4092   -1.8463    9.2961 H   0  0  0  0  0  0  0  0  0  0  0  0  # atno 5157 bound_to 5152
   15.0425   -0.2842    4.7954 H   0  0  0  0  0  0  0  0  0  0  0  0  # atno 5185 bound_to 5176
    3.0457   -0.4551    2.3991 H   0  0  0  0  0  0  0  0  0  0  0  0  # atno 5712 bound_to 5703
    5.9659    3.8501    3.6159 H   0  0  0  0  0  0  0  0  0  0  0  0  # atno 8036 bound_to 8031
    2.1303   -2.6860    3.9668 LP  0  0  0  0  0  0  0  0  0  0  0  0  # atno 8267 bound_to 5068
    1.5122   -1.2151    3.6190 LP  0  0  0  0  0  0  0  0  0  0  0  0  # atno 8268 bound_to 5068
   12.8758   -1.5172    9.2199 LP  0  0  0  0  0  0  0  0  0  0  0  0  # atno 8279 bound_to 5152
   12.3121   -3.0495    9.2493 LP  0  0  0  0  0  0  0  0  0  0  0  0  # atno 8280 bound_to 5152
   16.2491   -1.1693    4.6566 LP  0  0  0  0  0  0  0  0  0  0  0  0  # atno 8281 bound_to 5176
   16.3441    0.3941    5.1187 LP  0  0  0  0  0  0  0  0  0  0  0  0  # atno 8282 bound_to 5176
    1.7516   -1.0305    2.9021 LP  0  0  0  0  0  0  0  0  0  0  0  0  # atno 8283 bound_to 5703
    1.9644    0.5643    2.6234 LP  0  0  0  0  0  0  0  0  0  0  0  0  # atno 8284 bound_to 5703
    4.6143    4.3523    3.1905 LP  0  0  0  0  0  0  0  0  0  0  0  0  # atno 8309 bound_to 8031
    5.8396    5.3481    3.6074 LP  0  0  0  0  0  0  0  0  0  0  0  0  # atno 8310 bound_to 8031
   -3.2004   -0.4476    1.4194 LP  0  0  0  0  0  0  0  0  0  0  0  0  # atno 8323 bound_to 2745
   -3.0148   -0.3432   -0.1997 LP  0  0  0  0  0  0  0  0  0  0  0  0  # atno 8324 bound_to 2745
   18.8484    6.4855    2.5683 LP  0  0  0  0  0  0  0  0  0  0  0  0  # atno 8335 bound_to 1361
   17.6200    7.3594    1.9407 LP  0  0  0  0  0  0  0  0  0  0  0  0  # atno 8336 bound_to 1361
    4.8600   -9.7531    6.4703 LP  0  0  0  0  0  0  0  0  0  0  0  0  # atno 8342 bound_to 2551
    5.2444  -10.0031    8.0376 LP  0  0  0  0  0  0  0  0  0  0  0  0  # atno 8343 bound_to 2551

