
049|LMW3_p|sdf|49|dock1
  -GOLD-   6 722 5163D 1   1.00000     0.00000

 50 52  0  0  0  0  0  0  0  0  1 V2000
   12.5536    2.0295    2.9610 O   0  0  0  0  0  0  0  0  0  0  0  0
   11.5218    1.4225    3.2576 C   0  0  0  0  0  0  0  0  0  0  0  0
   10.3306    2.1666    3.7942 C   0  0  0  0  0  0  0  0  0  0  0  0
   11.4126   -0.0553    2.9953 C   0  0  0  0  0  0  0  0  0  0  0  0
   10.5112    3.5235    3.9981 O   0  0  0  0  0  0  0  0  0  0  0  0
    9.1456    1.5498    4.0006 C   0  0  0  0  0  0  0  0  0  0  0  0
   10.3467   -0.7251    3.8608 C   0  0  2  0  0  0  0  0  0  0  0  0
    8.9555    0.0189    3.8232 C   0  0  2  0  0  0  0  0  0  0  0  0
    7.9079    2.3405    4.3754 C   0  0  0  0  0  0  0  0  0  0  0  0
   10.8854   -0.6927    5.2008 O   0  0  0  0  0  0  0  0  0  0  0  0
   10.2331   -2.2124    3.4668 C   0  0  0  0  0  0  0  0  0  0  0  0
    8.1408   -0.3021    2.4967 C   0  0  2  0  0  0  0  0  0  0  0  0
    8.1080   -0.4910    5.0369 C   0  0  0  0  0  0  0  0  0  0  0  0
    9.4944   -2.4435    2.1563 C   0  0  0  0  0  0  0  0  0  0  0  0
    8.0958   -1.8105    2.1706 C   0  0  2  0  0  0  0  0  0  0  0  0
    8.4913    0.5878    1.2753 C   0  0  0  0  0  0  0  0  0  0  0  0
    7.3051   -2.1700    0.8897 C   0  0  0  0  0  0  0  0  0  0  0  0
    8.1970   -0.0149   -0.1024 C   0  0  2  0  0  0  0  0  0  0  0  0
    7.0312   -1.0202   -0.1094 C   0  0  0  0  0  0  0  0  0  0  0  0
    9.3848   -0.6573   -0.5711 O   0  0  0  0  0  0  0  0  0  0  0  0
    5.6986   -0.3107    0.2142 C   0  0  0  0  0  0  0  0  0  0  0  0
    6.8721   -1.6319   -1.5217 C   0  0  0  0  0  0  0  0  0  0  0  0
   12.3584   -0.5113    3.2014 H   0  0  0  0  0  0  0  0  0  0  0  0
   11.1288   -0.1840    1.9717 H   0  0  0  0  0  0  0  0  0  0  0  0
   11.3536    3.9099    3.8604 H   0  0  0  0  0  0  0  0  0  0  0  0
    7.0410    1.8559    3.9771 H   0  0  0  0  0  0  0  0  0  0  0  0
    7.9806    3.3291    3.9728 H   0  0  0  0  0  0  0  0  0  0  0  0
    7.8283    2.3944    5.4411 H   0  0  0  0  0  0  0  0  0  0  0  0
   10.9575    0.2278    5.4981 H   0  0  0  0  0  0  0  0  0  0  0  0
    9.7108   -2.7290    4.2448 H   0  0  0  0  0  0  0  0  0  0  0  0
   11.2300   -2.5772    3.3323 H   0  0  0  0  0  0  0  0  0  0  0  0
    7.1360   -0.0170    2.7290 H   0  0  0  0  0  0  0  0  0  0  0  0
    7.1190   -0.0871    4.9761 H   0  0  0  0  0  0  0  0  0  0  0  0
    8.5669   -0.1748    5.9503 H   0  0  0  0  0  0  0  0  0  0  0  0
    8.0589   -1.5596    5.0137 H   0  0  0  0  0  0  0  0  0  0  0  0
    9.3961   -3.4967    1.9953 H   0  0  0  0  0  0  0  0  0  0  0  0
   10.0587   -1.9853    1.3712 H   0  0  0  0  0  0  0  0  0  0  0  0
    7.5414   -2.2398    2.9788 H   0  0  0  0  0  0  0  0  0  0  0  0
    9.5377    0.8072    1.3198 H   0  0  0  0  0  0  0  0  0  0  0  0
    7.8596    1.4478    1.3546 H   0  0  0  0  0  0  0  0  0  0  0  0
    6.3589   -2.5661    1.1942 H   0  0  0  0  0  0  0  0  0  0  0  0
    7.9303   -2.8576    0.3594 H   0  0  0  0  0  0  0  0  0  0  0  0
    7.8963    0.7872   -0.7435 H   0  0  0  0  0  0  0  0  0  0  0  0
   10.0606    0.0120   -0.7619 H   0  0  0  0  0  0  0  0  0  0  0  0
    5.7347    0.0792    1.2100 H   0  0  0  0  0  0  0  0  0  0  0  0
    4.8933   -1.0106    0.1342 H   0  0  0  0  0  0  0  0  0  0  0  0
    5.5443    0.4911   -0.4774 H   0  0  0  0  0  0  0  0  0  0  0  0
    6.1236   -2.3961   -1.4970 H   0  0  0  0  0  0  0  0  0  0  0  0
    7.8038   -2.0552   -1.8341 H   0  0  0  0  0  0  0  0  0  0  0  0
    6.5787   -0.8674   -2.2104 H   0  0  0  0  0  0  0  0  0  0  0  0
  1  2  2  0  0  0  0
  2  3  1  0  0  0  0
  2  4  1  0  0  0  0
  3  5  1  0  0  0  0
  3  6  2  0  0  0  0
  4  7  1  0  0  0  0
  4 23  1  0  0  0  0
  4 24  1  0  0  0  0
  5 25  1  0  0  0  0
  6  8  1  0  0  0  0
  6  9  1  0  0  0  0
  7 10  1  0  0  0  0
  7 11  1  0  0  0  0
  7  8  1  0  0  0  0
  8 12  1  0  0  0  0
  8 13  1  0  0  0  0
  9 26  1  0  0  0  0
  9 27  1  0  0  0  0
  9 28  1  0  0  0  0
 10 29  1  0  0  0  0
 11 14  1  0  0  0  0
 11 30  1  0  0  0  0
 11 31  1  0  0  0  0
 12 15  1  0  0  0  0
 12 16  1  0  0  0  0
 12 32  1  0  0  0  0
 13 33  1  0  0  0  0
 13 34  1  0  0  0  0
 13 35  1  0  0  0  0
 14 15  1  0  0  0  0
 14 36  1  0  0  0  0
 14 37  1  0  0  0  0
 15 17  1  0  0  0  0
 15 38  1  0  0  0  0
 16 18  1  0  0  0  0
 16 39  1  0  0  0  0
 16 40  1  0  0  0  0
 17 19  1  0  0  0  0
 17 41  1  0  0  0  0
 17 42  1  0  0  0  0
 18 20  1  0  0  0  0
 18 19  1  0  0  0  0
 18 43  1  0  0  0  0
 19 21  1  0  0  0  0
 19 22  1  0  0  0  0
 20 44  1  0  0  0  0
 21 45  1  0  0  0  0
 21 46  1  0  0  0  0
 21 47  1  0  0  0  0
 22 48  1  0  0  0  0
 22 49  1  0  0  0  0
 22 50  1  0  0  0  0
M  END
>  <Code-name>
049

>  <Compound>
Connatus A

>  <Specie>
Lentinus

>  <Reference>
FILHO, 2009

>  <Organism>
Cytotoxic Activity

>  <Smiles>
CC(C)(C[C@@H](CC[C@]1(CC2=O)O)[C@H](C3)[C@]1(C)C(C)=C2O)[C@@H]3O

>  <MMFF94 Energy>
108.22

>  <Total Molweight>
308.416

>  <Molweight>
308.416

>  <Monoisotopic Mass>
308.198760

>  <cLogP>
2.1242

>  <cLogS>
-3.186

>  <H-Acceptors>
4

>  <H-Donors>
3

>  <Total Surface Area>
219.29

>  <Relative PSA>
0.23868

>  <Polar Surface Area>
77.76

>  <Druglikeness>
0.049614

>  <Mutagenic>
none

>  <Tumorigenic>
none

>  <Reproductive Effective>
none

>  <Irritant>
none

>  <Nasty Functions>


>  <Shape Index>
0.45455

>  <Molecular Flexibility>
0.18096

>  <Molecular Complexity>
0.94225

>  <Fragments>
1

>  <Non-H Atoms>
22

>  <Non-C/H Atoms>
4

>  <Metal-Atoms>
0

>  <Electronegative Atoms>
4

>  <Stereo Centers>
5

>  <Rotatable Bonds>
0

>  <Rings Closures>
3

>  <Small Rings>
3

>  <Aromatic Rings>
0

>  <Aromatic Atoms>
0

>  <sp3-Atoms>
18

>  <Symmetric atoms>
1

>  <Amides>
0

>  <Amines>
0

>  <Alkyl-Amines>
0

>  <Aromatic Amines>
0

>  <Aromatic Nitrogens>
0

>  <Basic Nitrogens>
0

>  <Acidic Oxygens>
0

>  <Stereo Configuration>
this enantiomer

> <Gold.Version>
5.8.1

> <Gold.Id.Protein>
ID_2|Prot_COX2_5IKQ_Alig|mol2

> <Gold.Goldscore.Fitness>
17.3190

> <Gold.Goldscore.Internal.Vdw>
-12.9616

> <Gold.Goldscore.Internal.Torsion>
-1.3130

> <Gold.Goldscore.External.Vdw>
12.4654

> <Gold.Goldscore.Internal.HBond>
0.0000

> <Gold.Goldscore.External.HBond>
0.9000

> <Gold.Goldscore.Internal.Correction>
-13.5537

> <Gold.Goldscore.Hbonds>
donor molecule, donor type, donor heavy atom, donor atom, acceptor molecule, acceptor atom, score
      L1  H    20    44       P1  7931  0.45

> <Gold.Goldscore.Internal.Vdw.Weighted>
-12.9616

> <Gold.Goldscore.Internal.Torsion.Weighted>
-1.3130

> <Gold.Goldscore.External.Vdw.Weighted>
17.1399

> <Gold.Goldscore.Internal.HBond.Weighted>
0.0000

> <Gold.Goldscore.External.HBond.Weighted>
0.9000

> <Gold.Goldscore.Internal.Correction.Weighted>
-13.5537

> <Gold.Protein.RotatedTorsions>
[ 5077 5068 5067 5065 ] final  -27.56 input  179.94 | X-H torsion
[ 5157 5152 5151 5148 ] final -107.55 input -179.92 | X-H torsion
[ 5185 5176 5175 5173 ] final  127.12 input -179.99 | X-H torsion
[ 5712 5703 5702 5700 ] final  139.14 input  180.00 | X-H torsion
[ 8036 8031 8030 8027 ] final  109.43 input -179.94 | X-H torsion
[ 2749 2745 2743 2740 ] final   41.47 input  -60.05 | X-H torsion
[ 1366 1361 1360 1357 ] final   -1.88 input  -60.09 | X-H torsion
[ 2556 2551 2550 2547 ] final  113.95 input   59.97 | X-H torsion

> <Gold.Protein.ActiveResidues>
 PRO86   VAL89   HIS90   LEU93   THR94   ILE112  MET113  TYR115  VAL116  LEU117 
 THR118  SER119  ARG120  SER121  LEU123  ILE124  GLN192  SER194  PHE198  PHE201 
 ALA202  GLN203  PHE205  THR206  PHE209  PHE210  VAL228  ILE341  ILE343  VAL344 
 ILE345  GLU346  ASP347  TYR348  VAL349  GLN350  HIS351  LEU352  SER353  GLY354 
 TYR355  PHE357  LEU359  LYS360  GLU380  PHE381  ASN382  THR383  LEU384  TYR385 
 HIS386  TRP387  LEU390  VAL434  LEU507  ARG513  ALA516  ILE517  PHE518  GLY519 
 GLU520  THR521  MET522  VAL523  GLU524  VAL525  GLY526  ALA527  PRO528  PHE529 
 SER530  LEU531  LYS532  GLY533  LEU534  MET535  COH609 

> <Gold.Protein.RotatedAtoms>
   17.6290    7.6454    2.3956 H   0  0  0  0  0  0  0  0  0  0  0  0  # atno 1366 bound_to 1361
    4.9623   -9.9693    6.7704 H   0  0  0  0  0  0  0  0  0  0  0  0  # atno 2556 bound_to 2551
   -4.1467    0.2850    0.4012 H   0  0  0  0  0  0  0  0  0  0  0  0  # atno 2749 bound_to 2745
    1.2021   -2.7784    4.2883 H   0  0  0  0  0  0  0  0  0  0  0  0  # atno 5077 bound_to 5068
   11.5112   -1.6551    9.2898 H   0  0  0  0  0  0  0  0  0  0  0  0  # atno 5157 bound_to 5152
   15.0887   -0.0700    4.8632 H   0  0  0  0  0  0  0  0  0  0  0  0  # atno 5185 bound_to 5176
    3.0289   -0.1541    2.3632 H   0  0  0  0  0  0  0  0  0  0  0  0  # atno 5712 bound_to 5703
    4.9426    3.9663    3.2607 H   0  0  0  0  0  0  0  0  0  0  0  0  # atno 8036 bound_to 8031
    2.2862   -1.9401    3.6692 LP  0  0  0  0  0  0  0  0  0  0  0  0  # atno 8267 bound_to 5068
    0.7588   -1.4014    3.8777 LP  0  0  0  0  0  0  0  0  0  0  0  0  # atno 8268 bound_to 5068
   13.0116   -1.7369    9.2057 LP  0  0  0  0  0  0  0  0  0  0  0  0  # atno 8279 bound_to 5152
   12.0545   -3.0584    9.2711 LP  0  0  0  0  0  0  0  0  0  0  0  0  # atno 8280 bound_to 5152
   15.9905   -1.2432    4.6008 LP  0  0  0  0  0  0  0  0  0  0  0  0  # atno 8281 bound_to 5176
   16.5471    0.2109    5.0932 LP  0  0  0  0  0  0  0  0  0  0  0  0  # atno 8282 bound_to 5176
    2.0633   -1.2049    2.8347 LP  0  0  0  0  0  0  0  0  0  0  0  0  # atno 8283 bound_to 5703
    1.6729    0.3775    2.7339 LP  0  0  0  0  0  0  0  0  0  0  0  0  # atno 8284 bound_to 5703
    5.3444    5.4043    3.4355 LP  0  0  0  0  0  0  0  0  0  0  0  0  # atno 8309 bound_to 8031
    6.3372    4.1568    3.7886 LP  0  0  0  0  0  0  0  0  0  0  0  0  # atno 8310 bound_to 8031
   -3.3314   -0.3792    1.4770 LP  0  0  0  0  0  0  0  0  0  0  0  0  # atno 8323 bound_to 2745
   -2.9133   -0.4150   -0.1011 LP  0  0  0  0  0  0  0  0  0  0  0  0  # atno 8324 bound_to 2745
   18.5391    7.2688    3.5332 LP  0  0  0  0  0  0  0  0  0  0  0  0  # atno 8335 bound_to 1361
   18.5701    6.5129    2.0860 LP  0  0  0  0  0  0  0  0  0  0  0  0  # atno 8336 bound_to 1361
    5.1350   -9.6944    8.2397 LP  0  0  0  0  0  0  0  0  0  0  0  0  # atno 8342 bound_to 2551
    4.4590   -8.6214    7.2108 LP  0  0  0  0  0  0  0  0  0  0  0  0  # atno 8343 bound_to 2551

