
052|LMW3_p|sdf|52|dock4
  -GOLD-   6 722 6293D 1   1.00000     0.00000

 42 45  0  0  0  0  0  0  0  0  1 V2000
   10.3220   -1.7650    3.6838 O   0  0  0  0  0  0  0  0  0  0  0  0
   10.4353   -0.4239    3.9102 C   0  0  0  0  0  0  0  0  0  0  0  0
   11.5717   -2.3116    3.7640 C   0  0  0  0  0  0  0  0  0  0  0  0
    9.3789    0.4951    3.9157 C   0  0  0  0  0  0  0  0  0  0  0  0
   11.7653   -0.0976    4.1385 C   0  0  0  0  0  0  0  0  0  0  0  0
   11.6612   -3.7551    3.5484 C   0  0  0  0  0  0  0  0  0  0  0  0
   12.4892   -1.3165    4.0432 C   0  0  0  0  0  0  0  0  0  0  0  0
    8.1155    0.0327    3.6785 O   0  0  0  0  0  0  0  0  0  0  0  0
    9.7396    1.8268    4.1747 C   0  0  0  0  0  0  0  0  0  0  0  0
   12.0978    1.2432    4.3952 C   0  0  0  0  0  0  0  0  0  0  0  0
   12.8904   -4.3477    3.2134 C   0  0  0  0  0  0  0  0  0  0  0  0
   10.5173   -4.5819    3.6720 C   0  0  0  0  0  0  0  0  0  0  0  0
    7.2063    0.9307    3.0578 C   0  0  0  0  0  0  0  0  0  0  0  0
   11.0748    2.2080    4.4072 C   0  0  0  0  0  0  0  0  0  0  0  0
   12.9312   -5.7142    3.0185 C   0  0  0  0  0  0  0  0  0  0  0  0
   10.5876   -5.9657    3.4686 C   0  0  0  0  0  0  0  0  0  0  0  0
   11.4046    3.6544    4.7006 C   0  0  0  0  0  0  0  0  0  0  0  0
   14.0381   -6.4348    2.6913 O   0  0  0  0  0  0  0  0  0  0  0  0
   11.8119   -6.5012    3.1424 C   0  0  0  0  0  0  0  0  0  0  0  0
   11.4457    3.9262    6.2068 C   0  0  0  0  0  0  0  0  0  0  0  0
   13.4843   -7.7659    2.6235 C   0  0  0  0  0  0  0  0  0  0  0  0
   12.0713   -7.8150    2.9095 O   0  0  0  0  0  0  0  0  0  0  0  0
   12.4994    3.0809    6.9094 C   0  0  0  0  0  0  0  0  0  0  0  0
   12.0386    1.7435    7.0370 O   0  0  0  0  0  0  0  0  0  0  0  0
   13.5075   -1.4361    4.1604 H   0  0  0  0  0  0  0  0  0  0  0  0
    9.0028    2.5491    4.1954 H   0  0  0  0  0  0  0  0  0  0  0  0
   13.0773    1.5157    4.5721 H   0  0  0  0  0  0  0  0  0  0  0  0
   13.7432   -3.7749    3.1153 H   0  0  0  0  0  0  0  0  0  0  0  0
    9.6109   -4.1542    3.9177 H   0  0  0  0  0  0  0  0  0  0  0  0
    6.3265    0.3989    2.7609 H   0  0  0  0  0  0  0  0  0  0  0  0
    7.6675    1.3664    2.1963 H   0  0  0  0  0  0  0  0  0  0  0  0
    6.9400    1.7030    3.7489 H   0  0  0  0  0  0  0  0  0  0  0  0
    9.7506   -6.5624    3.5601 H   0  0  0  0  0  0  0  0  0  0  0  0
   10.6584    4.2786    4.2550 H   0  0  0  0  0  0  0  0  0  0  0  0
   12.3714    3.8674    4.2946 H   0  0  0  0  0  0  0  0  0  0  0  0
   10.4868    3.7010    6.6250 H   0  0  0  0  0  0  0  0  0  0  0  0
   11.6978    4.9560    6.3506 H   0  0  0  0  0  0  0  0  0  0  0  0
   13.9953   -8.3822    3.3333 H   0  0  0  0  0  0  0  0  0  0  0  0
   13.6149   -8.1110    1.6192 H   0  0  0  0  0  0  0  0  0  0  0  0
   12.6886    3.4855    7.8816 H   0  0  0  0  0  0  0  0  0  0  0  0
   13.4007    3.0899    6.3327 H   0  0  0  0  0  0  0  0  0  0  0  0
   12.7163    1.2089    7.4796 H   0  0  0  0  0  0  0  0  0  0  0  0
  1  2  1  0  0  0  0
  1  3  1  0  0  0  0
  2  4  2  0  0  0  0
  2  5  1  0  0  0  0
  3  6  1  0  0  0  0
  3  7  2  0  0  0  0
  4  8  1  0  0  0  0
  4  9  1  0  0  0  0
  5 10  2  0  0  0  0
  5  7  1  0  0  0  0
  6 11  2  0  0  0  0
  6 12  1  0  0  0  0
  7 25  1  0  0  0  0
  8 13  1  0  0  0  0
  9 14  2  0  0  0  0
  9 26  1  0  0  0  0
 10 14  1  0  0  0  0
 10 27  1  0  0  0  0
 11 15  1  0  0  0  0
 11 28  1  0  0  0  0
 12 16  2  0  0  0  0
 12 29  1  0  0  0  0
 13 30  1  0  0  0  0
 13 31  1  0  0  0  0
 13 32  1  0  0  0  0
 14 17  1  0  0  0  0
 15 18  1  0  0  0  0
 15 19  2  0  0  0  0
 16 19  1  0  0  0  0
 16 33  1  0  0  0  0
 17 20  1  0  0  0  0
 17 34  1  0  0  0  0
 17 35  1  0  0  0  0
 18 21  1  0  0  0  0
 19 22  1  0  0  0  0
 20 23  1  0  0  0  0
 20 36  1  0  0  0  0
 20 37  1  0  0  0  0
 21 22  1  0  0  0  0
 21 38  1  0  0  0  0
 21 39  1  0  0  0  0
 23 24  1  0  0  0  0
 23 40  1  0  0  0  0
 23 41  1  0  0  0  0
 24 42  1  0  0  0  0
M  END
>  <Code-name>
052

>  <Compound>
Egonol

>  <Specie>
Laetiporus sulphureus

>  <Reference>
SULKOWSKA-ZIAJA et al., 2005

>  <Organism>
Antitumoral Activity

>  <Smiles>
COc1c2oc(-c(cc3)cc4c3OCO4)cc2cc(CCCO)c1

>  <MMFF94 Energy>
54.284

>  <Total Molweight>
326.347

>  <Molweight>
326.347

>  <Monoisotopic Mass>
326.115425

>  <cLogP>
4.19

>  <cLogS>
-5.548

>  <H-Acceptors>
5

>  <H-Donors>
1

>  <Total Surface Area>
247.46

>  <Relative PSA>
0.23119

>  <Polar Surface Area>
61.06

>  <Druglikeness>
-6.5084

>  <Mutagenic>
none

>  <Tumorigenic>
none

>  <Reproductive Effective>
high

>  <Irritant>
none

>  <Nasty Functions>


>  <Shape Index>
0.58333

>  <Molecular Flexibility>
0.31782

>  <Molecular Complexity>
0.85592

>  <Fragments>
1

>  <Non-H Atoms>
24

>  <Non-C/H Atoms>
5

>  <Metal-Atoms>
0

>  <Electronegative Atoms>
5

>  <Stereo Centers>
0

>  <Rotatable Bonds>
5

>  <Rings Closures>
4

>  <Small Rings>
4

>  <Aromatic Rings>
3

>  <Aromatic Atoms>
15

>  <sp3-Atoms>
9

>  <Symmetric atoms>
0

>  <Amides>
0

>  <Amines>
0

>  <Alkyl-Amines>
0

>  <Aromatic Amines>
0

>  <Aromatic Nitrogens>
0

>  <Basic Nitrogens>
0

>  <Acidic Oxygens>
0

>  <Stereo Configuration>


> <Gold.Version>
5.8.1

> <Gold.Id.Protein>
ID_2|Prot_COX2_5IKQ_Alig|mol2

> <Gold.Goldscore.Fitness>
60.5353

> <Gold.Goldscore.Internal.Vdw>
-2.8741

> <Gold.Goldscore.Internal.Torsion>
-2.3518

> <Gold.Goldscore.External.Vdw>
43.8371

> <Gold.Goldscore.Internal.HBond>
0.0000

> <Gold.Goldscore.External.HBond>
1.6186

> <Gold.Goldscore.Internal.Correction>
-3.8665

> <Gold.Goldscore.Hbonds>
donor molecule, donor type, donor heavy atom, donor atom, acceptor molecule, acceptor atom, score
      P1  H  7785  7796       L1    18  0.13
      P1  H  7855  7866       L1    22  0.43

> <Gold.Goldscore.Internal.Vdw.Weighted>
-2.8741

> <Gold.Goldscore.Internal.Torsion.Weighted>
-2.3518

> <Gold.Goldscore.External.Vdw.Weighted>
60.2761

> <Gold.Goldscore.Internal.HBond.Weighted>
0.0000

> <Gold.Goldscore.External.HBond.Weighted>
1.6186

> <Gold.Goldscore.Internal.Correction.Weighted>
-3.8665

> <Gold.Protein.RotatedTorsions>
[ 5077 5068 5067 5065 ] final  -14.32 input  179.94 | X-H torsion
[ 5157 5152 5151 5148 ] final -167.03 input -179.92 | X-H torsion
[ 5185 5176 5175 5173 ] final  159.49 input -179.99 | X-H torsion
[ 5712 5703 5702 5700 ] final  138.53 input  180.00 | X-H torsion
[ 8036 8031 8030 8027 ] final -131.25 input -179.94 | X-H torsion
[ 2749 2745 2743 2740 ] final  -44.00 input  -60.05 | X-H torsion
[ 1366 1361 1360 1357 ] final -167.09 input  -60.09 | X-H torsion
[ 2556 2551 2550 2547 ] final -166.23 input   59.97 | X-H torsion

> <Gold.Protein.ActiveResidues>
 PRO86   VAL89   HIS90   LEU93   THR94   ILE112  MET113  TYR115  VAL116  LEU117 
 THR118  SER119  ARG120  SER121  LEU123  ILE124  GLN192  SER194  PHE198  PHE201 
 ALA202  GLN203  PHE205  THR206  PHE209  PHE210  VAL228  ILE341  ILE343  VAL344 
 ILE345  GLU346  ASP347  TYR348  VAL349  GLN350  HIS351  LEU352  SER353  GLY354 
 TYR355  PHE357  LEU359  LYS360  GLU380  PHE381  ASN382  THR383  LEU384  TYR385 
 HIS386  TRP387  LEU390  VAL434  LEU507  ARG513  ALA516  ILE517  PHE518  GLY519 
 GLU520  THR521  MET522  VAL523  GLU524  VAL525  GLY526  ALA527  PRO528  PHE529 
 SER530  LEU531  LYS532  GLY533  LEU534  MET535  COH609 

> <Gold.Protein.RotatedAtoms>
   18.8005    6.8477    3.0652 H   0  0  0  0  0  0  0  0  0  0  0  0  # atno 1366 bound_to 1361
    4.5346   -9.0498    6.7757 H   0  0  0  0  0  0  0  0  0  0  0  0  # atno 2556 bound_to 2551
   -3.7458   -0.0693    1.3302 H   0  0  0  0  0  0  0  0  0  0  0  0  # atno 2749 bound_to 2745
    1.0385   -2.7001    4.3035 H   0  0  0  0  0  0  0  0  0  0  0  0  # atno 5077 bound_to 5068
   12.2240   -1.3324    9.2331 H   0  0  0  0  0  0  0  0  0  0  0  0  # atno 5157 bound_to 5152
   15.3466    0.2612    4.9929 H   0  0  0  0  0  0  0  0  0  0  0  0  # atno 5185 bound_to 5176
    3.0308   -0.1623    2.3637 H   0  0  0  0  0  0  0  0  0  0  0  0  # atno 5712 bound_to 5703
    6.2103    4.1990    3.6979 H   0  0  0  0  0  0  0  0  0  0  0  0  # atno 8036 bound_to 8031
    2.3147   -2.1461    3.7329 LP  0  0  0  0  0  0  0  0  0  0  0  0  # atno 8267 bound_to 5068
    0.9261   -1.2892    3.7958 LP  0  0  0  0  0  0  0  0  0  0  0  0  # atno 8268 bound_to 5068
   12.9166   -2.6682    9.2026 LP  0  0  0  0  0  0  0  0  0  0  0  0  # atno 8279 bound_to 5152
   11.2970   -2.5130    9.3420 LP  0  0  0  0  0  0  0  0  0  0  0  0  # atno 8280 bound_to 5152
   15.4718   -1.1702    4.5524 LP  0  0  0  0  0  0  0  0  0  0  0  0  # atno 8281 bound_to 5176
   16.7562   -0.2598    4.9859 LP  0  0  0  0  0  0  0  0  0  0  0  0  # atno 8282 bound_to 5176
    2.0541   -1.2018    2.8370 LP  0  0  0  0  0  0  0  0  0  0  0  0  # atno 8283 bound_to 5703
    1.6798    0.3842    2.7310 LP  0  0  0  0  0  0  0  0  0  0  0  0  # atno 8284 bound_to 5703
    4.8085    3.8761    3.2613 LP  0  0  0  0  0  0  0  0  0  0  0  0  # atno 8309 bound_to 8031
    5.3523    5.4057    3.4382 LP  0  0  0  0  0  0  0  0  0  0  0  0  # atno 8310 bound_to 8031
   -2.7049   -0.5992    0.3819 LP  0  0  0  0  0  0  0  0  0  0  0  0  # atno 8323 bound_to 2745
   -4.0200    0.2293   -0.1186 LP  0  0  0  0  0  0  0  0  0  0  0  0  # atno 8324 bound_to 2745
   18.0265    6.8831    1.7754 LP  0  0  0  0  0  0  0  0  0  0  0  0  # atno 8335 bound_to 1361
   17.6812    7.8530    3.0429 LP  0  0  0  0  0  0  0  0  0  0  0  0  # atno 8336 bound_to 1361
    5.2432  -10.3072    7.2011 LP  0  0  0  0  0  0  0  0  0  0  0  0  # atno 8342 bound_to 2551
    4.8626   -9.1088    8.2430 LP  0  0  0  0  0  0  0  0  0  0  0  0  # atno 8343 bound_to 2551

