
061|LMW3_p|sdf|61|dock3
  -GOLD-   6 722 9223D 1   1.00000     0.00000

 40 42  0  0  0  0  0  0  0  0  1 V2000
   10.1293    3.7767    4.9942 O   0  0  0  0  0  0  0  0  0  0  0  0
   10.0608    2.6624    4.5087 C   0  0  0  0  0  0  0  0  0  0  0  0
    8.8761    2.1103    3.7870 C   0  0  0  0  0  0  0  0  0  0  0  0
   11.1766    1.7065    4.4478 C   0  0  1  0  0  0  0  0  0  0  0  0
    8.7862    0.7781    3.5368 C   0  0  0  0  0  0  0  0  0  0  0  0
   12.0819    1.0334    5.3914 C   0  0  0  0  0  0  0  0  0  0  0  0
   10.6910    0.4200    5.1674 C   0  0  2  0  0  0  0  0  0  0  0  0
    9.7667   -0.2869    4.1642 C   0  0  2  0  0  0  0  0  0  0  0  0
    7.8035    0.1959    2.5510 C   0  0  1  0  0  0  0  0  0  0  0  0
   12.3395    1.7238    6.7115 C   0  0  0  0  0  0  0  0  0  0  0  0
   13.3030    0.3414    4.8450 C   0  0  0  0  0  0  0  0  0  0  0  0
   10.5096   -1.0442    3.0172 C   0  0  2  0  0  0  0  0  0  0  0  0
    8.9105   -1.2846    5.0017 C   0  0  0  0  0  0  0  0  0  0  0  0
    6.9622    1.2033    1.9832 O   0  0  0  0  0  0  0  0  0  0  0  0
    8.5881   -0.4650    1.4022 C   0  0  1  0  0  0  0  0  0  0  0  0
    9.5478   -1.5405    1.9093 C   0  0  0  0  0  0  0  0  0  0  0  0
   11.3263   -2.2485    3.5105 C   0  0  0  0  0  0  0  0  0  0  0  0
    7.6706   -1.0655    0.4825 O   0  0  0  0  0  0  0  0  0  0  0  0
    8.1223    2.7434    3.4770 H   0  0  0  0  0  0  0  0  0  0  0  0
   11.5281    2.1970    3.5642 H   0  0  0  0  0  0  0  0  0  0  0  0
   10.2140   -0.1742    5.9185 H   0  0  0  0  0  0  0  0  0  0  0  0
    7.1924   -0.5099    3.0737 H   0  0  0  0  0  0  0  0  0  0  0  0
   13.1062    2.4595    6.5855 H   0  0  0  0  0  0  0  0  0  0  0  0
   12.6535    1.0019    7.4363 H   0  0  0  0  0  0  0  0  0  0  0  0
   11.4413    2.1986    7.0470 H   0  0  0  0  0  0  0  0  0  0  0  0
   14.1366    1.0116    4.8757 H   0  0  0  0  0  0  0  0  0  0  0  0
   13.1215    0.0440    3.8332 H   0  0  0  0  0  0  0  0  0  0  0  0
   13.5183   -0.5230    5.4377 H   0  0  0  0  0  0  0  0  0  0  0  0
   11.1778   -0.3115    2.6152 H   0  0  0  0  0  0  0  0  0  0  0  0
    8.3010   -0.7395    5.6917 H   0  0  0  0  0  0  0  0  0  0  0  0
    9.5576   -1.9442    5.5413 H   0  0  0  0  0  0  0  0  0  0  0  0
    8.2853   -1.8549    4.3469 H   0  0  0  0  0  0  0  0  0  0  0  0
    6.3132    0.7882    1.3938 H   0  0  0  0  0  0  0  0  0  0  0  0
    9.1633    0.2995    0.9230 H   0  0  0  0  0  0  0  0  0  0  0  0
    8.9700   -2.3511    2.3017 H   0  0  0  0  0  0  0  0  0  0  0  0
   10.1537   -1.8360    1.0784 H   0  0  0  0  0  0  0  0  0  0  0  0
   11.9974   -2.5644    2.7393 H   0  0  0  0  0  0  0  0  0  0  0  0
   10.6638   -3.0515    3.7578 H   0  0  0  0  0  0  0  0  0  0  0  0
   11.8863   -1.9684    4.3781 H   0  0  0  0  0  0  0  0  0  0  0  0
    8.1554   -1.3909   -0.2919 H   0  0  0  0  0  0  0  0  0  0  0  0
  1  2  2  0  0  0  0
  2  3  1  0  0  0  0
  2  4  1  0  0  0  0
  3  5  2  0  0  0  0
  3 19  1  0  0  0  0
  4  6  1  0  0  0  0
  4  7  1  0  0  0  0
  4 20  1  0  0  0  0
  5  8  1  0  0  0  0
  5  9  1  0  0  0  0
  6 10  1  0  0  0  0
  6 11  1  0  0  0  0
  6  7  1  0  0  0  0
  7  8  1  0  0  0  0
  7 21  1  0  0  0  0
  8 12  1  0  0  0  0
  8 13  1  0  0  0  0
  9 14  1  0  0  0  0
  9 15  1  0  0  0  0
  9 22  1  0  0  0  0
 10 23  1  0  0  0  0
 10 24  1  0  0  0  0
 10 25  1  0  0  0  0
 11 26  1  0  0  0  0
 11 27  1  0  0  0  0
 11 28  1  0  0  0  0
 12 16  1  0  0  0  0
 12 17  1  0  0  0  0
 12 29  1  0  0  0  0
 13 30  1  0  0  0  0
 13 31  1  0  0  0  0
 13 32  1  0  0  0  0
 14 33  1  0  0  0  0
 15 18  1  0  0  0  0
 15 16  1  0  0  0  0
 15 34  1  0  0  0  0
 16 35  1  0  0  0  0
 16 36  1  0  0  0  0
 17 37  1  0  0  0  0
 17 38  1  0  0  0  0
 17 39  1  0  0  0  0
 18 40  1  0  0  0  0
M  END
>  <Code-name>
061

>  <Compound>
Nambinona C

>  <Specie>
Neonothopanus nambi

>  <Reference>
KANOKMEDHAKUL et
al., 2012

>  <Organism>
Antitumoral Activity

>  <Smiles>
C[C@@H](C[C@H]([C@@H]1O)O)[C@@](C)([C@H]2C(C)(C)[C@@H]22)C1=CC2=O

>  <MMFF94 Energy>
122.84

>  <Total Molweight>
250.337

>  <Molweight>
250.337

>  <Monoisotopic Mass>
250.156895

>  <cLogP>
1.5693

>  <cLogS>
-2.496

>  <H-Acceptors>
3

>  <H-Donors>
2

>  <Total Surface Area>
174.28

>  <Relative PSA>
0.22515

>  <Polar Surface Area>
57.53

>  <Druglikeness>
-0.16104

>  <Mutagenic>
high

>  <Tumorigenic>
high

>  <Reproductive Effective>
high

>  <Irritant>
high

>  <Nasty Functions>


>  <Shape Index>
0.44444

>  <Molecular Flexibility>
0.19409

>  <Molecular Complexity>
0.9255

>  <Fragments>
1

>  <Non-H Atoms>
18

>  <Non-C/H Atoms>
3

>  <Metal-Atoms>
0

>  <Electronegative Atoms>
3

>  <Stereo Centers>
6

>  <Rotatable Bonds>
0

>  <Rings Closures>
3

>  <Small Rings>
4

>  <Aromatic Rings>
0

>  <Aromatic Atoms>
0

>  <sp3-Atoms>
14

>  <Symmetric atoms>
1

>  <Amides>
0

>  <Amines>
0

>  <Alkyl-Amines>
0

>  <Aromatic Amines>
0

>  <Aromatic Nitrogens>
0

>  <Basic Nitrogens>
0

>  <Acidic Oxygens>
0

>  <Stereo Configuration>
this enantiomer

> <Gold.Version>
5.8.1

> <Gold.Id.Protein>
ID_2|Prot_COX2_5IKQ_Alig|mol2

> <Gold.Goldscore.Fitness>
43.0228

> <Gold.Goldscore.Internal.Vdw>
-17.1213

> <Gold.Goldscore.Internal.Torsion>
-1.8791

> <Gold.Goldscore.External.Vdw>
31.1872

> <Gold.Goldscore.Internal.HBond>
0.0000

> <Gold.Goldscore.External.HBond>
0.3415

> <Gold.Goldscore.Internal.Correction>
-18.7992

> <Gold.Goldscore.Hbonds>
donor molecule, donor type, donor heavy atom, donor atom, acceptor molecule, acceptor atom, score
      L1  H    18    40       P1  7914  0.17

> <Gold.Goldscore.Internal.Vdw.Weighted>
-17.1213

> <Gold.Goldscore.Internal.Torsion.Weighted>
-1.8791

> <Gold.Goldscore.External.Vdw.Weighted>
42.8824

> <Gold.Goldscore.Internal.HBond.Weighted>
0.0000

> <Gold.Goldscore.External.HBond.Weighted>
0.3415

> <Gold.Goldscore.Internal.Correction.Weighted>
-18.7992

> <Gold.Protein.RotatedTorsions>
[ 5077 5068 5067 5065 ] final -140.54 input  179.94 | X-H torsion
[ 5157 5152 5151 5148 ] final -174.90 input -179.92 | X-H torsion
[ 5185 5176 5175 5173 ] final  -11.37 input -179.99 | X-H torsion
[ 5712 5703 5702 5700 ] final  131.26 input  180.00 | X-H torsion
[ 8036 8031 8030 8027 ] final -174.33 input -179.94 | X-H torsion
[ 2749 2745 2743 2740 ] final   63.68 input  -60.05 | X-H torsion
[ 1366 1361 1360 1357 ] final    7.03 input  -60.09 | X-H torsion
[ 2556 2551 2550 2547 ] final   91.75 input   59.97 | X-H torsion

> <Gold.Protein.ActiveResidues>
 PRO86   VAL89   HIS90   LEU93   THR94   ILE112  MET113  TYR115  VAL116  LEU117 
 THR118  SER119  ARG120  SER121  LEU123  ILE124  GLN192  SER194  PHE198  PHE201 
 ALA202  GLN203  PHE205  THR206  PHE209  PHE210  VAL228  ILE341  ILE343  VAL344 
 ILE345  GLU346  ASP347  TYR348  VAL349  GLN350  HIS351  LEU352  SER353  GLY354 
 TYR355  PHE357  LEU359  LYS360  GLU380  PHE381  ASN382  THR383  LEU384  TYR385 
 HIS386  TRP387  LEU390  VAL434  LEU507  ARG513  ALA516  ILE517  PHE518  GLY519 
 GLU520  THR521  MET522  VAL523  GLU524  VAL525  GLY526  ALA527  PRO528  PHE529 
 SER530  LEU531  LYS532  GLY533  LEU534  MET535  COH609 

> <Gold.Protein.RotatedAtoms>
   17.6386    7.5833    2.2902 H   0  0  0  0  0  0  0  0  0  0  0  0  # atno 1366 bound_to 1361
    5.0764  -10.1288    7.0031 H   0  0  0  0  0  0  0  0  0  0  0  0  # atno 2556 bound_to 2551
   -4.0217    0.2485    0.1262 H   0  0  0  0  0  0  0  0  0  0  0  0  # atno 2749 bound_to 2745
    2.1699   -2.0421    3.7846 H   0  0  0  0  0  0  0  0  0  0  0  0  # atno 5077 bound_to 5068
   12.3306   -1.3501    9.2239 H   0  0  0  0  0  0  0  0  0  0  0  0  # atno 5157 bound_to 5152
   16.1942   -1.0357    4.7335 H   0  0  0  0  0  0  0  0  0  0  0  0  # atno 5185 bound_to 5176
    3.0478   -0.2605    2.3721 H   0  0  0  0  0  0  0  0  0  0  0  0  # atno 5712 bound_to 5703
    5.8429    3.7689    3.5739 H   0  0  0  0  0  0  0  0  0  0  0  0  # atno 8036 bound_to 8031
    0.8421   -1.3380    3.8343 LP  0  0  0  0  0  0  0  0  0  0  0  0  # atno 8267 bound_to 5068
    1.0438   -2.8853    4.3159 LP  0  0  0  0  0  0  0  0  0  0  0  0  # atno 8268 bound_to 5068
   12.8345   -2.7682    9.2084 LP  0  0  0  0  0  0  0  0  0  0  0  0  # atno 8279 bound_to 5152
   11.2515   -2.3919    9.3473 LP  0  0  0  0  0  0  0  0  0  0  0  0  # atno 8280 bound_to 5152
   16.3176    0.4114    5.1202 LP  0  0  0  0  0  0  0  0  0  0  0  0  # atno 8281 bound_to 5176
   14.8927   -0.2842    4.7296 LP  0  0  0  0  0  0  0  0  0  0  0  0  # atno 8282 bound_to 5176
    1.9459   -1.1572    2.8625 LP  0  0  0  0  0  0  0  0  0  0  0  0  # atno 8283 bound_to 5703
    1.7676    0.4574    2.6954 LP  0  0  0  0  0  0  0  0  0  0  0  0  # atno 8284 bound_to 5703
    4.6090    4.5357    3.1873 LP  0  0  0  0  0  0  0  0  0  0  0  0  # atno 8309 bound_to 8031
    5.9926    5.2622    3.6610 LP  0  0  0  0  0  0  0  0  0  0  0  0  # atno 8310 bound_to 8031
   -3.6463   -0.2011    1.5119 LP  0  0  0  0  0  0  0  0  0  0  0  0  # atno 8323 bound_to 2745
   -2.7481   -0.5494    0.1934 LP  0  0  0  0  0  0  0  0  0  0  0  0  # atno 8324 bound_to 2745
   18.4379    7.3740    3.5476 LP  0  0  0  0  0  0  0  0  0  0  0  0  # atno 8335 bound_to 1361
   18.6599    6.4822    2.1978 LP  0  0  0  0  0  0  0  0  0  0  0  0  # atno 8336 bound_to 1361
    4.9915   -9.3656    8.2972 LP  0  0  0  0  0  0  0  0  0  0  0  0  # atno 8342 bound_to 2551
    4.4660   -8.7594    6.8749 LP  0  0  0  0  0  0  0  0  0  0  0  0  # atno 8343 bound_to 2551

