
067|LMW3_p|sdf|67|dock82
  -GOLD-   6 722 9473D 1   1.00000     0.00000

 21 21  0  0  0  0  0  0  0  0  1 V2000
   18.1064    0.4216    4.6186 O   0  0  0  0  0  0  0  0  0  0  0  0
   18.5426    0.5187    3.4727 C   0  0  0  0  0  0  0  0  0  0  0  0
   18.4796    1.8110    2.7528 C   0  0  0  0  0  0  0  0  0  0  0  0
   18.7103    1.8274    1.3668 C   0  0  0  0  0  0  0  0  0  0  0  0
   18.1866    3.0166    3.4326 C   0  0  0  0  0  0  0  0  0  0  0  0
   18.9966    0.7079    0.6223 O   0  0  0  0  0  0  0  0  0  0  0  0
   18.6519    3.0257    0.6655 C   0  0  0  0  0  0  0  0  0  0  0  0
   18.1341    4.2168    2.6932 C   0  0  0  0  0  0  0  0  0  0  0  0
   17.9187    3.0801    4.9119 C   0  0  0  0  0  0  0  0  0  0  0  0
   18.8741    3.0523   -0.6853 O   0  0  0  0  0  0  0  0  0  0  0  0
   18.3657    4.2102    1.3241 C   0  0  0  0  0  0  0  0  0  0  0  0
   16.6689    2.4665    5.1804 O   0  0  0  0  0  0  0  0  0  0  0  0
   18.3071    5.3830    0.6306 O   0  0  0  0  0  0  0  0  0  0  0  0
   18.9553   -0.3062    3.0098 H   0  0  0  0  0  0  0  0  0  0  0  0
   18.3342    0.3211    0.0842 H   0  0  0  0  0  0  0  0  0  0  0  0
   17.9222    5.1056    3.1729 H   0  0  0  0  0  0  0  0  0  0  0  0
   17.8923    4.1019    5.2283 H   0  0  0  0  0  0  0  0  0  0  0  0
   18.6945    2.5685    5.4424 H   0  0  0  0  0  0  0  0  0  0  0  0
   18.3992    2.4743   -1.2496 H   0  0  0  0  0  0  0  0  0  0  0  0
   15.9719    2.9206    4.6814 H   0  0  0  0  0  0  0  0  0  0  0  0
   18.2984    6.1993    1.0905 H   0  0  0  0  0  0  0  0  0  0  0  0
  1  2  2  0  0  0  0
  2  3  1  0  0  0  0
  2 14  1  0  0  0  0
  3  4  2  0  0  0  0
  3  5  1  0  0  0  0
  4  6  1  0  0  0  0
  4  7  1  0  0  0  0
  5  8  2  0  0  0  0
  5  9  1  0  0  0  0
  6 15  1  0  0  0  0
  7 10  1  0  0  0  0
  7 11  2  0  0  0  0
  8 11  1  0  0  0  0
  8 16  1  0  0  0  0
  9 12  1  0  0  0  0
  9 17  1  0  0  0  0
  9 18  1  0  0  0  0
 10 19  1  0  0  0  0
 11 13  1  0  0  0  0
 12 20  1  0  0  0  0
 13 21  1  0  0  0  0
M  END
>  <Code-name>
067

>  <Compound>
Fornecine B

>  <Specie>
Pyroformes demidoffi

>  <Reference>
COTA et al, 2009

>  <Organism>
Cytotoxic Activity

>  <Smiles>
OCc(c(C=O)c1O)cc(O)c1O

>  <MMFF94 Energy>
13.694

>  <Total Molweight>
184.147

>  <Molweight>
184.147

>  <Monoisotopic Mass>
184.037175

>  <cLogP>
-0.0415

>  <cLogS>
-0.936

>  <H-Acceptors>
5

>  <H-Donors>
4

>  <Total Surface Area>
131.96

>  <Relative PSA>
0.49591

>  <Polar Surface Area>
97.99

>  <Druglikeness>
-4.2546

>  <Mutagenic>
none

>  <Tumorigenic>
none

>  <Reproductive Effective>
none

>  <Irritant>
none

>  <Nasty Functions>


>  <Shape Index>
0.53846

>  <Molecular Flexibility>
0.36576

>  <Molecular Complexity>
0.7788

>  <Fragments>
1

>  <Non-H Atoms>
13

>  <Non-C/H Atoms>
5

>  <Metal-Atoms>
0

>  <Electronegative Atoms>
5

>  <Stereo Centers>
0

>  <Rotatable Bonds>
2

>  <Rings Closures>
1

>  <Small Rings>
1

>  <Aromatic Rings>
1

>  <Aromatic Atoms>
6

>  <sp3-Atoms>
5

>  <Symmetric atoms>
0

>  <Amides>
0

>  <Amines>
0

>  <Alkyl-Amines>
0

>  <Aromatic Amines>
0

>  <Aromatic Nitrogens>
0

>  <Basic Nitrogens>
0

>  <Acidic Oxygens>
0

>  <Stereo Configuration>


> <Gold.Version>
5.8.1

> <Gold.Id.Protein>
ID_2|Prot_COX2_5IKQ_Alig|mol2

> <Gold.Goldscore.Fitness>
50.2534

> <Gold.Goldscore.Internal.Vdw>
-2.7585

> <Gold.Goldscore.Internal.Torsion>
-4.6014

> <Gold.Goldscore.External.Vdw>
24.1710

> <Gold.Goldscore.Internal.HBond>
0.0000

> <Gold.Goldscore.External.HBond>
19.1905

> <Gold.Goldscore.Internal.Correction>
-5.1877

> <Gold.Goldscore.Hbonds>
donor molecule, donor type, donor heavy atom, donor atom, acceptor molecule, acceptor atom, score
      P1  H  1377  1389       L1    12  1.00
      P1  H  5176  5185       L1     1  0.18
      L1  H     6    15       P1  7952  0.90
      L1  H    10    19       P1  7951  1.00
      L1  H    13    21       P1  1361  0.71

> <Gold.Goldscore.Internal.Vdw.Weighted>
-2.7585

> <Gold.Goldscore.Internal.Torsion.Weighted>
-4.6014

> <Gold.Goldscore.External.Vdw.Weighted>
33.2351

> <Gold.Goldscore.Internal.HBond.Weighted>
0.0000

> <Gold.Goldscore.External.HBond.Weighted>
19.1905

> <Gold.Goldscore.Internal.Correction.Weighted>
-5.1877

> <Gold.Protein.RotatedTorsions>
[ 5077 5068 5067 5065 ] final  178.27 input  179.94 | X-H torsion
[ 5157 5152 5151 5148 ] final -136.94 input -179.92 | X-H torsion
[ 5185 5176 5175 5173 ] final  -88.61 input -179.99 | X-H torsion
[ 5712 5703 5702 5700 ] final  151.42 input  180.00 | X-H torsion
[ 8036 8031 8030 8027 ] final  -73.66 input -179.94 | X-H torsion
[ 2749 2745 2743 2740 ] final   19.08 input  -60.05 | X-H torsion
[ 1366 1361 1360 1357 ] final  -57.37 input  -60.09 | X-H torsion
[ 2556 2551 2550 2547 ] final -145.23 input   59.97 | X-H torsion

> <Gold.Protein.ActiveResidues>
 PRO86   VAL89   HIS90   LEU93   THR94   ILE112  MET113  TYR115  VAL116  LEU117 
 THR118  SER119  ARG120  SER121  LEU123  ILE124  GLN192  SER194  PHE198  PHE201 
 ALA202  GLN203  PHE205  THR206  PHE209  PHE210  VAL228  ILE341  ILE343  VAL344 
 ILE345  GLU346  ASP347  TYR348  VAL349  GLN350  HIS351  LEU352  SER353  GLY354 
 TYR355  PHE357  LEU359  LYS360  GLU380  PHE381  ASN382  THR383  LEU384  TYR385 
 HIS386  TRP387  LEU390  VAL434  LEU507  ARG513  ALA516  ILE517  PHE518  GLY519 
 GLU520  THR521  MET522  VAL523  GLU524  VAL525  GLY526  ALA527  PRO528  PHE529 
 SER530  LEU531  LYS532  GLY533  LEU534  MET535  COH609 

> <Gold.Protein.RotatedAtoms>
   17.8756    7.7505    3.0809 H   0  0  0  0  0  0  0  0  0  0  0  0  # atno 1366 bound_to 1361
    4.4884   -8.8701    6.9960 H   0  0  0  0  0  0  0  0  0  0  0  0  # atno 2556 bound_to 2551
   -4.1744    0.2612    0.7057 H   0  0  0  0  0  0  0  0  0  0  0  0  # atno 2749 bound_to 2745
    1.9175   -1.5581    3.6828 H   0  0  0  0  0  0  0  0  0  0  0  0  # atno 5077 bound_to 5068
   11.8205   -1.4008    9.2666 H   0  0  0  0  0  0  0  0  0  0  0  0  # atno 5157 bound_to 5152
   16.5753   -0.1790    5.0308 H   0  0  0  0  0  0  0  0  0  0  0  0  # atno 5185 bound_to 5176
    2.9720    0.0045    2.3582 H   0  0  0  0  0  0  0  0  0  0  0  0  # atno 5712 bound_to 5703
    6.1085    4.9505    3.6571 H   0  0  0  0  0  0  0  0  0  0  0  0  # atno 8036 bound_to 8031
    0.5001   -1.8426    4.0966 LP  0  0  0  0  0  0  0  0  0  0  0  0  # atno 8267 bound_to 5068
    1.6881   -2.9602    4.1755 LP  0  0  0  0  0  0  0  0  0  0  0  0  # atno 8268 bound_to 5068
   13.0879   -2.2093    9.1936 LP  0  0  0  0  0  0  0  0  0  0  0  0  # atno 8279 bound_to 5152
   11.6082   -2.8901    9.3110 LP  0  0  0  0  0  0  0  0  0  0  0  0  # atno 8280 bound_to 5152
   15.1582    0.3127    4.9367 LP  0  0  0  0  0  0  0  0  0  0  0  0  # atno 8281 bound_to 5176
   15.5946   -1.2142    4.5562 LP  0  0  0  0  0  0  0  0  0  0  0  0  # atno 8282 bound_to 5176
    2.2545   -1.2455    2.7843 LP  0  0  0  0  0  0  0  0  0  0  0  0  # atno 8283 bound_to 5703
    1.5500    0.2277    2.7902 LP  0  0  0  0  0  0  0  0  0  0  0  0  # atno 8284 bound_to 5703
    5.6052    3.5388    3.5398 LP  0  0  0  0  0  0  0  0  0  0  0  0  # atno 8309 bound_to 8031
    4.6777    4.8414    3.2088 LP  0  0  0  0  0  0  0  0  0  0  0  0  # atno 8310 bound_to 8031
   -3.0414   -0.5252    1.3070 LP  0  0  0  0  0  0  0  0  0  0  0  0  # atno 8323 bound_to 2745
   -3.1701   -0.2405   -0.2958 LP  0  0  0  0  0  0  0  0  0  0  0  0  # atno 8324 bound_to 2745
   18.9070    6.6565    3.0221 LP  0  0  0  0  0  0  0  0  0  0  0  0  # atno 8335 bound_to 1361
   17.9072    6.9996    1.7774 LP  0  0  0  0  0  0  0  0  0  0  0  0  # atno 8336 bound_to 1361
    5.1473  -10.2181    6.8832 LP  0  0  0  0  0  0  0  0  0  0  0  0  # atno 8342 bound_to 2551
    5.0136   -9.4128    8.2974 LP  0  0  0  0  0  0  0  0  0  0  0  0  # atno 8343 bound_to 2551

