
006|LMW3_p|sdf|6|dock192
  -GOLD-   6 62216493D 1   1.00000     0.00000

 80 83  0  0  0  0  0  0  0  0  1 V2000
   15.7688  -12.6400   12.7621 O   0  0  0  0  0  0  0  0  0  0  0  0
   16.8685  -11.8039   12.3530 C   0  0  2  0  0  0  0  0  0  0  0  0
   14.9702  -12.0428   13.7768 C   0  0  0  0  0  0  0  0  0  0  0  0
   16.3502  -10.8198   11.3509 C   0  0  0  0  0  0  0  0  0  0  0  0
   17.9821  -12.7561   11.7881 C   0  0  1  0  0  0  0  0  0  0  0  0
   16.9642  -10.5318   10.1939 C   0  0  0  0  0  0  0  0  0  0  0  0
   17.3527  -13.7882   10.9997 O   0  0  0  0  0  0  0  0  0  0  0  0
   19.0164  -11.9989   10.8933 C   0  0  1  0  0  0  0  0  0  0  0  0
   18.6768  -13.4823   12.9616 C   0  0  0  0  0  0  0  0  0  0  0  0
   18.2868  -11.1662    9.7586 C   0  0  1  0  0  0  0  0  0  0  0  0
   16.3996   -9.6111    9.1439 C   0  0  1  0  0  0  0  0  0  0  0  0
   19.8226  -11.0165   11.8024 C   0  0  0  0  0  0  0  0  0  0  0  0
   20.0312  -12.9813   10.2458 C   0  0  0  0  0  0  0  0  0  0  0  0
   19.5317  -12.5494   13.8191 C   0  0  2  0  0  0  0  0  0  0  0  0
   18.0683  -11.9057    8.4055 C   0  0  0  0  0  0  0  0  0  0  0  0
   16.0562  -10.4054    7.8576 C   0  0  2  0  0  0  0  0  0  0  0  0
   15.1513   -8.7565    9.3652 C   0  0  0  0  0  0  0  0  0  0  0  0
   20.4958  -11.6980   12.9966 C   0  0  0  0  0  0  0  0  0  0  0  0
   20.2686  -13.3128   14.7706 O   0  0  0  0  0  0  0  0  0  0  0  0
   17.3617  -11.0421    7.3347 C   0  0  0  0  0  0  0  0  0  0  0  0
   15.5152   -9.2443    6.9716 C   0  0  2  0  0  0  0  0  0  0  0  0
   15.0200  -11.5233    8.0928 C   0  0  0  0  0  0  0  0  0  0  0  0
   14.7732   -8.2963    7.9461 C   0  0  0  0  0  0  0  0  0  0  0  0
   14.8364   -9.5637    5.6109 C   0  0  1  0  0  0  0  0  0  0  0  0
   13.8068   -8.6664    4.9478 C   0  0  0  0  0  0  0  0  0  0  0  0
   15.9319   -9.8143    4.5547 C   0  0  0  0  0  0  0  0  0  0  0  0
   13.8618   -7.9467    3.8164 C   0  0  0  0  0  0  0  0  0  0  0  0
   12.6846   -7.1691    3.2535 C   0  0  1  0  0  0  0  0  0  0  0  0
   12.3312   -5.9392    4.1364 C   0  0  0  0  0  0  0  0  0  0  0  0
   13.0328   -6.7816    1.8104 C   0  0  0  0  0  0  0  0  0  0  0  0
   13.3064   -4.7729    3.9347 C   0  0  0  0  0  0  0  0  0  0  0  0
   10.9090   -5.4364    3.8549 C   0  0  0  0  0  0  0  0  0  0  0  0
   17.2978  -11.2363   13.1521 H   0  0  0  0  0  0  0  0  0  0  0  0
   15.6047  -11.5909   14.5103 H   0  0  0  0  0  0  0  0  0  0  0  0
   14.3650  -12.7926   14.2419 H   0  0  0  0  0  0  0  0  0  0  0  0
   14.3402  -11.2956   13.3412 H   0  0  0  0  0  0  0  0  0  0  0  0
   15.4655  -10.3327   11.5637 H   0  0  0  0  0  0  0  0  0  0  0  0
   16.9113  -14.4205   11.5880 H   0  0  0  0  0  0  0  0  0  0  0  0
   19.3058  -14.2506   12.5627 H   0  0  0  0  0  0  0  0  0  0  0  0
   17.9088  -13.8813   13.5907 H   0  0  0  0  0  0  0  0  0  0  0  0
   19.0057  -10.3930    9.5850 H   0  0  0  0  0  0  0  0  0  0  0  0
   17.2143   -8.9176    9.1290 H   0  0  0  0  0  0  0  0  0  0  0  0
   19.1509  -10.2706   12.1733 H   0  0  0  0  0  0  0  0  0  0  0  0
   20.6017  -10.5992   11.1994 H   0  0  0  0  0  0  0  0  0  0  0  0
   20.7053  -12.4358    9.6189 H   0  0  0  0  0  0  0  0  0  0  0  0
   19.5034  -13.7035    9.6585 H   0  0  0  0  0  0  0  0  0  0  0  0
   20.5837  -13.4810   11.0139 H   0  0  0  0  0  0  0  0  0  0  0  0
   18.8595  -11.8784   14.3120 H   0  0  0  0  0  0  0  0  0  0  0  0
   17.4710  -12.7745    8.5875 H   0  0  0  0  0  0  0  0  0  0  0  0
   19.0368  -12.1505    8.0220 H   0  0  0  0  0  0  0  0  0  0  0  0
   15.3685   -7.9183    9.9938 H   0  0  0  0  0  0  0  0  0  0  0  0
   14.3629   -9.2899    9.8537 H   0  0  0  0  0  0  0  0  0  0  0  0
   20.9101  -10.9428   13.6312 H   0  0  0  0  0  0  0  0  0  0  0  0
   21.2491  -12.3517   12.6091 H   0  0  0  0  0  0  0  0  0  0  0  0
   20.8388  -13.9451   14.3059 H   0  0  0  0  0  0  0  0  0  0  0  0
   17.1289  -11.6609    6.4935 H   0  0  0  0  0  0  0  0  0  0  0  0
   18.0265  -10.2479    7.0662 H   0  0  0  0  0  0  0  0  0  0  0  0
   16.3414   -8.7515    6.5031 H   0  0  0  0  0  0  0  0  0  0  0  0
   14.0533  -11.0886    8.2390 H   0  0  0  0  0  0  0  0  0  0  0  0
   15.2932  -12.0858    8.9611 H   0  0  0  0  0  0  0  0  0  0  0  0
   14.9948  -12.1710    7.2416 H   0  0  0  0  0  0  0  0  0  0  0  0
   15.0850   -7.2848    7.7888 H   0  0  0  0  0  0  0  0  0  0  0  0
   13.7147   -8.3319    7.7941 H   0  0  0  0  0  0  0  0  0  0  0  0
   14.2291  -10.3850    5.9293 H   0  0  0  0  0  0  0  0  0  0  0  0
   12.9102   -8.5981    5.4543 H   0  0  0  0  0  0  0  0  0  0  0  0
   16.4069   -8.8880    4.3068 H   0  0  0  0  0  0  0  0  0  0  0  0
   15.4902  -10.2350    3.6756 H   0  0  0  0  0  0  0  0  0  0  0  0
   16.6587  -10.4935    4.9488 H   0  0  0  0  0  0  0  0  0  0  0  0
   14.7545   -7.9201    3.2994 H   0  0  0  0  0  0  0  0  0  0  0  0
   11.8024   -7.7746    3.2559 H   0  0  0  0  0  0  0  0  0  0  0  0
   12.4042   -6.2797    5.1482 H   0  0  0  0  0  0  0  0  0  0  0  0
   13.9066   -6.1640    1.8078 H   0  0  0  0  0  0  0  0  0  0  0  0
   12.2149   -6.2440    1.3781 H   0  0  0  0  0  0  0  0  0  0  0  0
   13.2200   -7.6665    1.2387 H   0  0  0  0  0  0  0  0  0  0  0  0
   14.3022   -5.0991    4.1508 H   0  0  0  0  0  0  0  0  0  0  0  0
   13.0434   -3.9704    4.5919 H   0  0  0  0  0  0  0  0  0  0  0  0
   13.2539   -4.4353    2.9207 H   0  0  0  0  0  0  0  0  0  0  0  0
   10.2093   -6.2252    4.0366 H   0  0  0  0  0  0  0  0  0  0  0  0
   10.8368   -5.1237    2.8341 H   0  0  0  0  0  0  0  0  0  0  0  0
   10.6892   -4.6096    4.4976 H   0  0  0  0  0  0  0  0  0  0  0  0
  1  2  1  0  0  0  0
  1  3  1  0  0  0  0
  2  4  1  0  0  0  0
  2  5  1  0  0  0  0
  2 33  1  0  0  0  0
  3 34  1  0  0  0  0
  3 35  1  0  0  0  0
  3 36  1  0  0  0  0
  4  6  2  0  0  0  0
  4 37  1  0  0  0  0
  5  7  1  0  0  0  0
  5  8  1  0  0  0  0
  5  9  1  0  0  0  0
  6 10  1  0  0  0  0
  6 11  1  0  0  0  0
  7 38  1  0  0  0  0
  8 12  1  0  0  0  0
  8 13  1  0  0  0  0
  8 10  1  0  0  0  0
  9 14  1  0  0  0  0
  9 39  1  0  0  0  0
  9 40  1  0  0  0  0
 10 15  1  0  0  0  0
 10 41  1  0  0  0  0
 11 16  1  0  0  0  0
 11 17  1  0  0  0  0
 11 42  1  0  0  0  0
 12 18  1  0  0  0  0
 12 43  1  0  0  0  0
 12 44  1  0  0  0  0
 13 45  1  0  0  0  0
 13 46  1  0  0  0  0
 13 47  1  0  0  0  0
 14 19  1  0  0  0  0
 14 18  1  0  0  0  0
 14 48  1  0  0  0  0
 15 20  1  0  0  0  0
 15 49  1  0  0  0  0
 15 50  1  0  0  0  0
 16 21  1  0  0  0  0
 16 22  1  0  0  0  0
 16 20  1  0  0  0  0
 17 23  1  0  0  0  0
 17 51  1  0  0  0  0
 17 52  1  0  0  0  0
 18 53  1  0  0  0  0
 18 54  1  0  0  0  0
 19 55  1  0  0  0  0
 20 56  1  0  0  0  0
 20 57  1  0  0  0  0
 21 24  1  0  0  0  0
 21 23  1  0  0  0  0
 21 58  1  0  0  0  0
 22 59  1  0  0  0  0
 22 60  1  0  0  0  0
 22 61  1  0  0  0  0
 23 62  1  0  0  0  0
 23 63  1  0  0  0  0
 24 25  1  0  0  0  0
 24 26  1  0  0  0  0
 24 64  1  0  0  0  0
 25 27  2  0  0  0  0
 25 65  1  0  0  0  0
 26 66  1  0  0  0  0
 26 67  1  0  0  0  0
 26 68  1  0  0  0  0
 27 28  1  0  0  0  0
 27 69  1  0  0  0  0
 28 29  1  0  0  0  0
 28 30  1  0  0  0  0
 28 70  1  0  0  0  0
 29 31  1  0  0  0  0
 29 32  1  0  0  0  0
 29 71  1  0  0  0  0
 30 72  1  0  0  0  0
 30 73  1  0  0  0  0
 30 74  1  0  0  0  0
 31 75  1  0  0  0  0
 31 76  1  0  0  0  0
 31 77  1  0  0  0  0
 32 78  1  0  0  0  0
 32 79  1  0  0  0  0
 32 80  1  0  0  0  0
M  END
>  <Code-name>
006

>  <Compound>
(22E)-6β-methoxyergosta-7,22-diene-3β,5α-diol

>  <Specie>
Pleurotus eryngii

>  <Reference>
KIKUCHI et al., 2018

>  <Organism>
Anticancer Activity

>  <Smiles>
CC(C)[C@@H](C)/C=C/[C@@H](C)[C@@H](CC1)[C@@](C)(CC[C@@H]2[C@@](C)(CC[C@@H](C3)O)[C@@]33O)[C@@H]1C2=C[C@H]3OC

>  <MMFF94 Energy>
134.89

>  <Total Molweight>
444.697

>  <Molweight>
444.697

>  <Monoisotopic Mass>
444.360345

>  <cLogP>
5.901

>  <cLogS>
-5.45

>  <H-Acceptors>
3

>  <H-Donors>
2

>  <Total Surface Area>
346.78

>  <Relative PSA>
0.10439

>  <Polar Surface Area>
49.69

>  <Druglikeness>
0.22742

>  <Mutagenic>
none

>  <Tumorigenic>
none

>  <Reproductive Effective>
none

>  <Irritant>
none

>  <Nasty Functions>


>  <Shape Index>
0.5

>  <Molecular Flexibility>
0.2958

>  <Molecular Complexity>
0.98524

>  <Fragments>
1

>  <Non-H Atoms>
32

>  <Non-C/H Atoms>
3

>  <Metal-Atoms>
0

>  <Electronegative Atoms>
3

>  <Stereo Centers>
10

>  <Rotatable Bonds>
5

>  <Rings Closures>
4

>  <Small Rings>
4

>  <Aromatic Rings>
0

>  <Aromatic Atoms>
0

>  <sp3-Atoms>
28

>  <Symmetric atoms>
1

>  <Amides>
0

>  <Amines>
0

>  <Alkyl-Amines>
0

>  <Aromatic Amines>
0

>  <Aromatic Nitrogens>
0

>  <Basic Nitrogens>
0

>  <Acidic Oxygens>
0

>  <Stereo Configuration>
this enantiomer

> <Gold.Version>
5.8.1

> <Gold.Id.Protein>
ID_2|Prot_COX2_5IKQ_Alig|mol2

> <Gold.Goldscore.Fitness>
19.2279

> <Gold.Goldscore.Internal.Vdw>
-29.2411

> <Gold.Goldscore.Internal.Torsion>
-6.1419

> <Gold.Goldscore.External.Vdw>
25.3243

> <Gold.Goldscore.Internal.HBond>
0.0000

> <Gold.Goldscore.External.HBond>
0.0000

> <Gold.Goldscore.Internal.Correction>
-19.7901

> <Gold.Goldscore.Internal.Vdw.Weighted>
-29.2411

> <Gold.Goldscore.Internal.Torsion.Weighted>
-6.1419

> <Gold.Goldscore.External.Vdw.Weighted>
34.8208

> <Gold.Goldscore.Internal.HBond.Weighted>
0.0000

> <Gold.Goldscore.External.HBond.Weighted>
0.0000

> <Gold.Goldscore.Internal.Correction.Weighted>
-19.7901

> <Gold.Protein.RotatedTorsions>
[ 5077 5068 5067 5065 ] final  175.67 input  179.94 | X-H torsion
[ 5157 5152 5151 5148 ] final  -75.65 input -179.92 | X-H torsion
[ 5185 5176 5175 5173 ] final   34.71 input -179.99 | X-H torsion
[ 5712 5703 5702 5700 ] final  161.28 input  180.00 | X-H torsion
[ 8036 8031 8030 8027 ] final  120.31 input -179.94 | X-H torsion
[ 2749 2745 2743 2740 ] final   82.32 input  -60.05 | X-H torsion
[ 1366 1361 1360 1357 ] final -146.35 input  -60.09 | X-H torsion
[ 2556 2551 2550 2547 ] final   32.16 input   59.97 | X-H torsion

> <Gold.Protein.ActiveResidues>
 PRO86   VAL89   HIS90   LEU93   THR94   ILE112  MET113  TYR115  VAL116  LEU117 
 THR118  SER119  ARG120  SER121  LEU123  ILE124  GLN192  SER194  PHE198  PHE201 
 ALA202  GLN203  PHE205  THR206  PHE209  PHE210  VAL228  ILE341  ILE343  VAL344 
 ILE345  GLU346  ASP347  TYR348  VAL349  GLN350  HIS351  LEU352  SER353  GLY354 
 TYR355  PHE357  LEU359  LYS360  GLU380  PHE381  ASN382  THR383  LEU384  TYR385 
 HIS386  TRP387  LEU390  VAL434  LEU507  ARG513  ALA516  ILE517  PHE518  GLY519 
 GLU520  THR521  MET522  VAL523  GLU524  VAL525  GLY526  ALA527  PRO528  PHE529 
 SER530  LEU531  LYS532  GLY533  LEU534  MET535  COH609 

> <Gold.Protein.RotatedAtoms>
   18.7042    7.0363    3.2552 H   0  0  0  0  0  0  0  0  0  0  0  0  # atno 1366 bound_to 1361
    5.1760  -10.0581    7.7790 H   0  0  0  0  0  0  0  0  0  0  0  0  # atno 2556 bound_to 2551
   -3.8551    0.1754   -0.0537 H   0  0  0  0  0  0  0  0  0  0  0  0  # atno 2749 bound_to 2745
    1.8909   -1.5341    3.6813 H   0  0  0  0  0  0  0  0  0  0  0  0  # atno 5077 bound_to 5068
   11.3625   -2.0633    9.2975 H   0  0  0  0  0  0  0  0  0  0  0  0  # atno 5157 bound_to 5152
   15.5851   -1.0693    4.6424 H   0  0  0  0  0  0  0  0  0  0  0  0  # atno 5185 bound_to 5176
    2.9038    0.1214    2.3623 H   0  0  0  0  0  0  0  0  0  0  0  0  # atno 5712 bound_to 5703
    5.0434    3.8617    3.2964 H   0  0  0  0  0  0  0  0  0  0  0  0  # atno 8036 bound_to 8031
    0.4928   -1.8820    4.1121 LP  0  0  0  0  0  0  0  0  0  0  0  0  # atno 8267 bound_to 5068
    1.7273   -2.9497    4.1617 LP  0  0  0  0  0  0  0  0  0  0  0  0  # atno 8268 bound_to 5068
   12.6805   -1.3392    9.2386 LP  0  0  0  0  0  0  0  0  0  0  0  0  # atno 8279 bound_to 5152
   12.5634   -2.9679    9.2290 LP  0  0  0  0  0  0  0  0  0  0  0  0  # atno 8280 bound_to 5152
   16.7423   -0.1821    5.0064 LP  0  0  0  0  0  0  0  0  0  0  0  0  # atno 8281 bound_to 5176
   15.1993    0.3497    4.9528 LP  0  0  0  0  0  0  0  0  0  0  0  0  # atno 8282 bound_to 5176
    2.4102   -1.2472    2.7391 LP  0  0  0  0  0  0  0  0  0  0  0  0  # atno 8283 bound_to 5703
    1.4761    0.0891    2.8305 LP  0  0  0  0  0  0  0  0  0  0  0  0  # atno 8284 bound_to 5703
    5.1814    5.3563    3.3794 LP  0  0  0  0  0  0  0  0  0  0  0  0  # atno 8309 bound_to 8031
    6.3794    4.3302    3.8019 LP  0  0  0  0  0  0  0  0  0  0  0  0  # atno 8310 bound_to 8031
   -3.8973   -0.0452    1.4339 LP  0  0  0  0  0  0  0  0  0  0  0  0  # atno 8323 bound_to 2745
   -2.6966   -0.6178    0.4868 LP  0  0  0  0  0  0  0  0  0  0  0  0  # atno 8324 bound_to 2745
   18.2830    6.6756    1.8565 LP  0  0  0  0  0  0  0  0  0  0  0  0  # atno 8335 bound_to 1361
   17.5401    7.8349    2.7345 LP  0  0  0  0  0  0  0  0  0  0  0  0  # atno 8336 bound_to 1361
    4.5861   -8.6742    7.8106 LP  0  0  0  0  0  0  0  0  0  0  0  0  # atno 8342 bound_to 2551
    4.7522   -9.5354    6.4332 LP  0  0  0  0  0  0  0  0  0  0  0  0  # atno 8343 bound_to 2551

