
073|LMW3_p|sdf|73|dock3
  -GOLD-   6 72214163D 1   1.00000     0.00000

 16 16  0  0  0  0  0  0  0  0  1 V2000
   12.1404   -7.5403    2.7197 O   0  0  0  0  0  0  0  0  0  0  0  0
   11.2484   -6.7435    2.9824 C   0  0  0  0  0  0  0  0  0  0  0  0
   11.5288   -5.3235    3.2733 C   0  0  0  0  0  0  0  0  0  0  0  0
   12.8510   -4.8717    3.3357 C   0  0  0  0  0  0  0  0  0  0  0  0
   10.4616   -4.4435    3.4839 C   0  0  0  0  0  0  0  0  0  0  0  0
   13.0976   -3.5295    3.6112 C   0  0  0  0  0  0  0  0  0  0  0  0
   10.7180   -3.0979    3.7597 C   0  0  0  0  0  0  0  0  0  0  0  0
   14.3804   -3.0631    3.6777 O   0  0  0  0  0  0  0  0  0  0  0  0
   12.0362   -2.6460    3.8224 C   0  0  0  0  0  0  0  0  0  0  0  0
   12.3031   -1.3334    4.0911 O   0  0  0  0  0  0  0  0  0  0  0  0
   10.2711   -7.0746    3.0010 H   0  0  0  0  0  0  0  0  0  0  0  0
   13.6342   -5.5253    3.1794 H   0  0  0  0  0  0  0  0  0  0  0  0
    9.4896   -4.7867    3.4358 H   0  0  0  0  0  0  0  0  0  0  0  0
    9.9367   -2.4422    3.9162 H   0  0  0  0  0  0  0  0  0  0  0  0
   15.0987   -3.6646    3.6682 H   0  0  0  0  0  0  0  0  0  0  0  0
   13.1750   -1.0675    4.3081 H   0  0  0  0  0  0  0  0  0  0  0  0
  1  2  2  0  0  0  0
  2  3  1  0  0  0  0
  2 11  1  0  0  0  0
  3  4  2  0  0  0  0
  3  5  1  0  0  0  0
  4  6  1  0  0  0  0
  4 12  1  0  0  0  0
  5  7  2  0  0  0  0
  5 13  1  0  0  0  0
  6  8  1  0  0  0  0
  6  9  2  0  0  0  0
  7  9  1  0  0  0  0
  7 14  1  0  0  0  0
  8 15  1  0  0  0  0
  9 10  1  0  0  0  0
 10 16  1  0  0  0  0
M  END
>  <Code-name>
073

>  <Compound>
Hericerine A

>  <Specie>
Hericium erinaceum

>  <Reference>
LI et al., 2016

>  <Organism>
Antitumoral Activity

>  <Smiles>
Oc(ccc(C=O)c1)c1O

>  <MMFF94 Energy>
23.843

>  <Total Molweight>
138.122

>  <Molweight>
138.122

>  <Monoisotopic Mass>
138.031695

>  <cLogP>
0.9015

>  <cLogS>
-1.348

>  <H-Acceptors>
3

>  <H-Donors>
2

>  <Total Surface Area>
105.5

>  <Relative PSA>
0.37194

>  <Polar Surface Area>
57.53

>  <Druglikeness>
-4.1407

>  <Mutagenic>
high

>  <Tumorigenic>
none

>  <Reproductive Effective>
none

>  <Irritant>
high

>  <Nasty Functions>


>  <Shape Index>
0.7

>  <Molecular Flexibility>
0.25412

>  <Molecular Complexity>
0.64378

>  <Fragments>
1

>  <Non-H Atoms>
10

>  <Non-C/H Atoms>
3

>  <Metal-Atoms>
0

>  <Electronegative Atoms>
3

>  <Stereo Centers>
0

>  <Rotatable Bonds>
1

>  <Rings Closures>
1

>  <Small Rings>
1

>  <Aromatic Rings>
1

>  <Aromatic Atoms>
6

>  <sp3-Atoms>
2

>  <Symmetric atoms>
0

>  <Amides>
0

>  <Amines>
0

>  <Alkyl-Amines>
0

>  <Aromatic Amines>
0

>  <Aromatic Nitrogens>
0

>  <Basic Nitrogens>
0

>  <Acidic Oxygens>
0

>  <Stereo Configuration>


> <Gold.Version>
5.8.1

> <Gold.Id.Protein>
ID_2|Prot_COX2_5IKQ_Alig|mol2

> <Gold.Goldscore.Fitness>
35.8840

> <Gold.Goldscore.Internal.Vdw>
-1.5125

> <Gold.Goldscore.Internal.Torsion>
-0.2101

> <Gold.Goldscore.External.Vdw>
23.3215

> <Gold.Goldscore.Internal.HBond>
0.0000

> <Gold.Goldscore.External.HBond>
4.1961

> <Gold.Goldscore.Internal.Correction>
-1.3434

> <Gold.Goldscore.Hbonds>
donor molecule, donor type, donor heavy atom, donor atom, acceptor molecule, acceptor atom, score
      P1  H  5176  5185       L1     8  0.69
      P1  H  7855  7866       L1     1  0.10
      L1  H     8    15       P1   852  0.82
      L1  H    10    16       P1  5176  0.48

> <Gold.Goldscore.Internal.Vdw.Weighted>
-1.5125

> <Gold.Goldscore.Internal.Torsion.Weighted>
-0.2101

> <Gold.Goldscore.External.Vdw.Weighted>
32.0670

> <Gold.Goldscore.Internal.HBond.Weighted>
0.0000

> <Gold.Goldscore.External.HBond.Weighted>
4.1961

> <Gold.Goldscore.Internal.Correction.Weighted>
-1.3434

> <Gold.Protein.RotatedTorsions>
[ 5077 5068 5067 5065 ] final   77.17 input  179.94 | X-H torsion
[ 5157 5152 5151 5148 ] final   96.39 input -179.92 | X-H torsion
[ 5185 5176 5175 5173 ] final   41.47 input -179.99 | X-H torsion
[ 5712 5703 5702 5700 ] final  131.49 input  180.00 | X-H torsion
[ 8036 8031 8030 8027 ] final  105.10 input -179.94 | X-H torsion
[ 2749 2745 2743 2740 ] final -105.75 input  -60.05 | X-H torsion
[ 1366 1361 1360 1357 ] final  -53.73 input  -60.09 | X-H torsion
[ 2556 2551 2550 2547 ] final -149.28 input   59.97 | X-H torsion

> <Gold.Protein.ActiveResidues>
 PRO86   VAL89   HIS90   LEU93   THR94   ILE112  MET113  TYR115  VAL116  LEU117 
 THR118  SER119  ARG120  SER121  LEU123  ILE124  GLN192  SER194  PHE198  PHE201 
 ALA202  GLN203  PHE205  THR206  PHE209  PHE210  VAL228  ILE341  ILE343  VAL344 
 ILE345  GLU346  ASP347  TYR348  VAL349  GLN350  HIS351  LEU352  SER353  GLY354 
 TYR355  PHE357  LEU359  LYS360  GLU380  PHE381  ASN382  THR383  LEU384  TYR385 
 HIS386  TRP387  LEU390  VAL434  LEU507  ARG513  ALA516  ILE517  PHE518  GLY519 
 GLU520  THR521  MET522  VAL523  GLU524  VAL525  GLY526  ALA527  PRO528  PHE529 
 SER530  LEU531  LYS532  GLY533  LEU534  MET535  COH609 

> <Gold.Protein.RotatedAtoms>
   17.8456    7.7599    3.0418 H   0  0  0  0  0  0  0  0  0  0  0  0  # atno 1366 bound_to 1361
    4.4939   -8.8991    6.9486 H   0  0  0  0  0  0  0  0  0  0  0  0  # atno 2556 bound_to 2551
   -3.0520   -0.4482    1.1502 H   0  0  0  0  0  0  0  0  0  0  0  0  # atno 2749 bound_to 2745
    0.7479   -1.6461    4.0150 H   0  0  0  0  0  0  0  0  0  0  0  0  # atno 5077 bound_to 5068
   12.9187   -2.2842    9.1627 H   0  0  0  0  0  0  0  0  0  0  0  0  # atno 5157 bound_to 5152
   15.4991   -1.0341    4.6410 H   0  0  0  0  0  0  0  0  0  0  0  0  # atno 5185 bound_to 5176
    3.0474   -0.2573    2.3717 H   0  0  0  0  0  0  0  0  0  0  0  0  # atno 5712 bound_to 5703
    4.9080    4.0132    3.2484 H   0  0  0  0  0  0  0  0  0  0  0  0  # atno 8036 bound_to 8031
    1.3929   -2.9824    4.2593 LP  0  0  0  0  0  0  0  0  0  0  0  0  # atno 8267 bound_to 5068
    2.1959   -1.7150    3.6149 LP  0  0  0  0  0  0  0  0  0  0  0  0  # atno 8268 bound_to 5068
   11.5210   -2.8200    9.3193 LP  0  0  0  0  0  0  0  0  0  0  0  0  # atno 8279 bound_to 5152
   11.8617   -1.2229    9.3096 LP  0  0  0  0  0  0  0  0  0  0  0  0  # atno 8280 bound_to 5152
   16.7596   -0.2884    4.9782 LP  0  0  0  0  0  0  0  0  0  0  0  0  # atno 8281 bound_to 5176
   15.2853    0.4137    4.9827 LP  0  0  0  0  0  0  0  0  0  0  0  0  # atno 8282 bound_to 5176
    1.9493   -1.1588    2.8617 LP  0  0  0  0  0  0  0  0  0  0  0  0  # atno 8283 bound_to 5703
    1.7647    0.4552    2.6965 LP  0  0  0  0  0  0  0  0  0  0  0  0  # atno 8284 bound_to 5703
    5.4112    5.4141    3.4586 LP  0  0  0  0  0  0  0  0  0  0  0  0  # atno 8309 bound_to 8031
    6.3119    4.0906    3.7804 LP  0  0  0  0  0  0  0  0  0  0  0  0  # atno 8310 bound_to 8031
   -3.2361   -0.1988   -0.3220 LP  0  0  0  0  0  0  0  0  0  0  0  0  # atno 8323 bound_to 2745
   -4.3197    0.2827    0.8008 LP  0  0  0  0  0  0  0  0  0  0  0  0  # atno 8324 bound_to 2745
   18.9009    6.6878    3.0729 LP  0  0  0  0  0  0  0  0  0  0  0  0  # atno 8335 bound_to 1361
   17.9492    6.9570    1.7735 LP  0  0  0  0  0  0  0  0  0  0  0  0  # atno 8336 bound_to 1361
    5.1691  -10.2437    6.9407 LP  0  0  0  0  0  0  0  0  0  0  0  0  # atno 8342 bound_to 2551
    4.9853   -9.3525    8.2966 LP  0  0  0  0  0  0  0  0  0  0  0  0  # atno 8343 bound_to 2551

