
080|LMW3_p|sdf|80|dock3
  -GOLD-   6 72214213D 1   1.00000     0.00000

 42 43  0  0  0  0  0  0  0  0  2 V2000
    9.9776    0.4789    2.2792 O   0  0  0  0  0  0  0  0  0  0  0  0
   10.7590   -0.3446    2.7242 C   0  0  0  0  0  0  0  0  0  0  0  0
   11.9614   -0.0916    3.2950 O   0  0  0  0  0  0  0  0  0  0  0  0
   10.5597   -1.8072    2.7183 C   0  0  0  0  0  0  0  0  0  0  0  0
   12.1113    1.2135    3.8999 C   0  0  1  0  0  0  0  0  0  0  0  0
   11.4242   -2.6042    3.3638 C   0  0  0  0  0  0  0  0  0  0  0  0
   11.2647    1.2330    5.1860 C   0  0  2  0  0  0  0  0  0  0  0  0
   13.5932    1.4506    4.2116 C   0  0  0  0  0  0  0  0  0  0  0  0
   11.3016   -4.0668    3.4200 C   0  0  0  0  0  0  0  0  0  0  0  0
    9.8716    1.1640    4.8464 O   0  0  0  0  0  0  0  0  0  0  0  0
   11.5029    2.5012    6.0207 C   0  0  2  0  0  0  0  0  0  0  0  0
   13.8172    2.7314    5.0161 C   0  0  2  0  0  0  0  0  0  0  0  0
   12.4672   -4.8372    3.5203 C   0  0  0  0  0  0  0  0  0  0  0  0
   10.0596   -4.7185    3.3225 C   0  0  0  0  0  0  0  0  0  0  0  0
   10.9297    3.6218    5.3297 O   0  0  0  0  0  0  0  0  0  0  0  0
   12.9863    2.7313    6.3055 C   0  0  0  0  0  0  0  0  0  0  0  0
   13.3800    3.8482    4.2267 O   0  0  0  0  0  0  0  0  0  0  0  0
   15.3100    2.8493    5.3564 C   0  0  0  0  0  0  0  0  0  0  0  0
   12.3758   -6.2228    3.5491 C   0  0  0  0  0  0  0  0  0  0  0  0
    9.9760   -6.1157    3.3509 C   0  0  0  0  0  0  0  0  0  0  0  0
   16.2498    2.7934    4.5828 O   0  0  0  0  0  0  0  0  0  0  0  0
   15.5084    3.0767    6.6757 O   0  5  0  0  0  0  0  0  0  0  0  0
   13.5186   -6.9633    3.6573 O   0  0  0  0  0  0  0  0  0  0  0  0
   11.1416   -6.8606    3.4673 C   0  0  0  0  0  0  0  0  0  0  0  0
   11.1276   -8.2271    3.4999 O   0  0  0  0  0  0  0  0  0  0  0  0
    9.7553   -2.2165    2.2178 H   0  0  0  0  0  0  0  0  0  0  0  0
   11.7796    1.9910    3.2438 H   0  0  0  0  0  0  0  0  0  0  0  0
   12.2218   -2.1643    3.8490 H   0  0  0  0  0  0  0  0  0  0  0  0
   11.5589    0.3869    5.7712 H   0  0  0  0  0  0  0  0  0  0  0  0
   14.1316    1.5242    3.2898 H   0  0  0  0  0  0  0  0  0  0  0  0
   13.9403    0.6279    4.8011 H   0  0  0  0  0  0  0  0  0  0  0  0
    9.6181    1.9625    4.3575 H   0  0  0  0  0  0  0  0  0  0  0  0
   11.0296    2.3809    6.9727 H   0  0  0  0  0  0  0  0  0  0  0  0
   13.3896   -4.3774    3.5725 H   0  0  0  0  0  0  0  0  0  0  0  0
    9.1975   -4.1591    3.2286 H   0  0  0  0  0  0  0  0  0  0  0  0
   11.1129    4.4353    5.8252 H   0  0  0  0  0  0  0  0  0  0  0  0
   13.3414    1.9521    6.9471 H   0  0  0  0  0  0  0  0  0  0  0  0
   13.0923    3.6888    6.7712 H   0  0  0  0  0  0  0  0  0  0  0  0
   13.6260    4.6745    4.6713 H   0  0  0  0  0  0  0  0  0  0  0  0
    9.0596   -6.5858    3.2861 H   0  0  0  0  0  0  0  0  0  0  0  0
   13.5777   -7.7980    3.2358 H   0  0  0  0  0  0  0  0  0  0  0  0
   10.9102   -8.6746    4.2939 H   0  0  0  0  0  0  0  0  0  0  0  0
  1  2  2  0  0  0  0
  2  3  1  0  0  0  0
  2  4  1  0  0  0  0
  3  5  1  0  0  0  0
  4  6  2  0  0  0  0
  4 26  1  0  0  0  0
  5  7  1  0  0  0  0
  5  8  1  0  0  0  0
  5 27  1  0  0  0  0
  6  9  1  0  0  0  0
  6 28  1  0  0  0  0
  7 10  1  0  0  0  0
  7 11  1  0  0  0  0
  7 29  1  0  0  0  0
  8 12  1  0  0  0  0
  8 30  1  0  0  0  0
  8 31  1  0  0  0  0
  9 13  2  0  0  0  0
  9 14  1  0  0  0  0
 10 32  1  0  0  0  0
 11 15  1  0  0  0  0
 11 16  1  0  0  0  0
 11 33  1  0  0  0  0
 12 17  1  0  0  0  0
 12 18  1  0  0  0  0
 12 16  1  0  0  0  0
 13 19  1  0  0  0  0
 13 34  1  0  0  0  0
 14 20  2  0  0  0  0
 14 35  1  0  0  0  0
 15 36  1  0  0  0  0
 16 37  1  0  0  0  0
 16 38  1  0  0  0  0
 17 39  1  0  0  0  0
 18 21  2  0  0  0  0
 18 22  1  0  0  0  0
 19 23  1  0  0  0  0
 19 24  2  0  0  0  0
 20 24  1  0  0  0  0
 20 40  1  0  0  0  0
 23 41  1  0  0  0  0
 24 25  1  0  0  0  0
 25 42  1  0  0  0  0
M  CHG  1  22  -1
M  END
>  <Code-name>
080

>  <Compound>
Chlorogenic Acid

>  <Specie>
Hericium erinaceus

>  <Reference>
Sharif et al., (2018)

>  <Organism>
Antioxidant Activity

>  <Smiles>
O[C@H](C[C@](C[C@H]1OC(/C=C/c(cc2)cc(O)c2O)=O)(C(O)=O)O)[C@H]1O

>  <MMFF94 Energy>
41.713

>  <Total Molweight>
354.310

>  <Molweight>
354.310

>  <Monoisotopic Mass>
354.095085

>  <cLogP>
-0.7685

>  <cLogS>
-1.496

>  <H-Acceptors>
9

>  <H-Donors>
6

>  <Total Surface Area>
245.29

>  <Relative PSA>
0.46753

>  <Polar Surface Area>
164.75

>  <Druglikeness>
-0.97603

>  <Mutagenic>
none

>  <Tumorigenic>
none

>  <Reproductive Effective>
none

>  <Irritant>
none

>  <Nasty Functions>


>  <Shape Index>
0.56

>  <Molecular Flexibility>
0.37016

>  <Molecular Complexity>
0.81435

>  <Fragments>
1

>  <Non-H Atoms>
25

>  <Non-C/H Atoms>
9

>  <Metal-Atoms>
0

>  <Electronegative Atoms>
9

>  <Stereo Centers>
4

>  <Rotatable Bonds>
5

>  <Rings Closures>
2

>  <Small Rings>
2

>  <Aromatic Rings>
1

>  <Aromatic Atoms>
6

>  <sp3-Atoms>
13

>  <Symmetric atoms>
0

>  <Amides>
0

>  <Amines>
0

>  <Alkyl-Amines>
0

>  <Aromatic Amines>
0

>  <Aromatic Nitrogens>
0

>  <Basic Nitrogens>
0

>  <Acidic Oxygens>
1

>  <Stereo Configuration>
this enantiomer

> <Gold.Version>
5.8.1

> <Gold.Id.Protein>
ID_2|Prot_COX2_5IKQ_Alig|mol2

> <Gold.Goldscore.Fitness>
56.8920

> <Gold.Goldscore.Internal.Vdw>
-7.3264

> <Gold.Goldscore.Internal.Torsion>
-8.8706

> <Gold.Goldscore.External.Vdw>
37.4015

> <Gold.Goldscore.Internal.HBond>
0.0000

> <Gold.Goldscore.External.HBond>
13.0023

> <Gold.Goldscore.Internal.Correction>
-8.6596

> <Gold.Goldscore.Hbonds>
donor molecule, donor type, donor heavy atom, donor atom, acceptor molecule, acceptor atom, score
      P1  H  1374  1386       L1    21  0.01
      P1  H  1377  1389       L1    21  1.00
      P1  H  5176  5185       L1    21  0.13
      P1  H  7836  7844       L1    25  0.03
      P1  H  7855  7866       L1    25  0.34
      L1  H    25    42       P1  2530  0.67

> <Gold.Goldscore.Internal.Vdw.Weighted>
-7.3264

> <Gold.Goldscore.Internal.Torsion.Weighted>
-8.8706

> <Gold.Goldscore.External.Vdw.Weighted>
51.4271

> <Gold.Goldscore.Internal.HBond.Weighted>
0.0000

> <Gold.Goldscore.External.HBond.Weighted>
13.0023

> <Gold.Goldscore.Internal.Correction.Weighted>
-8.6596

> <Gold.Protein.RotatedTorsions>
[ 5077 5068 5067 5065 ] final   13.38 input  179.94 | X-H torsion
[ 5157 5152 5151 5148 ] final -163.12 input -179.92 | X-H torsion
[ 5185 5176 5175 5173 ] final -152.53 input -179.99 | X-H torsion
[ 5712 5703 5702 5700 ] final -121.10 input  180.00 | X-H torsion
[ 8036 8031 8030 8027 ] final -148.55 input -179.94 | X-H torsion
[ 2749 2745 2743 2740 ] final -150.99 input  -60.05 | X-H torsion
[ 1366 1361 1360 1357 ] final  -45.25 input  -60.09 | X-H torsion
[ 2556 2551 2550 2547 ] final   12.00 input   59.97 | X-H torsion

> <Gold.Protein.ActiveResidues>
 PRO86   VAL89   HIS90   LEU93   THR94   ILE112  MET113  TYR115  VAL116  LEU117 
 THR118  SER119  ARG120  SER121  LEU123  ILE124  GLN192  SER194  PHE198  PHE201 
 ALA202  GLN203  PHE205  THR206  PHE209  PHE210  VAL228  ILE341  ILE343  VAL344 
 ILE345  GLU346  ASP347  TYR348  VAL349  GLN350  HIS351  LEU352  SER353  GLY354 
 TYR355  PHE357  LEU359  LYS360  GLU380  PHE381  ASN382  THR383  LEU384  TYR385 
 HIS386  TRP387  LEU390  VAL434  LEU507  ARG513  ALA516  ILE517  PHE518  GLY519 
 GLU520  THR521  MET522  VAL523  GLU524  VAL525  GLY526  ALA527  PRO528  PHE529 
 SER530  LEU531  LYS532  GLY533  LEU534  MET535  COH609 

> <Gold.Protein.RotatedAtoms>
   17.7819    7.7729    2.9447 H   0  0  0  0  0  0  0  0  0  0  0  0  # atno 1366 bound_to 1361
    5.1274   -9.8786    7.9838 H   0  0  0  0  0  0  0  0  0  0  0  0  # atno 2556 bound_to 2551
   -2.8102   -0.5160    0.5969 H   0  0  0  0  0  0  0  0  0  0  0  0  # atno 2749 bound_to 2745
    0.7690   -2.4361    4.2820 H   0  0  0  0  0  0  0  0  0  0  0  0  # atno 5077 bound_to 5068
   12.1702   -1.3291    9.2377 H   0  0  0  0  0  0  0  0  0  0  0  0  # atno 5157 bound_to 5152
   15.9644    0.3834    5.1107 H   0  0  0  0  0  0  0  0  0  0  0  0  # atno 5185 bound_to 5176
    1.9858    0.4046    2.5920 H   0  0  0  0  0  0  0  0  0  0  0  0  # atno 5712 bound_to 5703
    6.1006    3.9918    3.6615 H   0  0  0  0  0  0  0  0  0  0  0  0  # atno 8036 bound_to 8031
    2.2183   -2.5549    3.8988 LP  0  0  0  0  0  0  0  0  0  0  0  0  # atno 8267 bound_to 5068
    1.3453   -1.1965    3.6556 LP  0  0  0  0  0  0  0  0  0  0  0  0  # atno 8268 bound_to 5068
   12.9522   -2.6145    9.2002 LP  0  0  0  0  0  0  0  0  0  0  0  0  # atno 8279 bound_to 5152
   11.3257   -2.5707    9.3389 LP  0  0  0  0  0  0  0  0  0  0  0  0  # atno 8280 bound_to 5152
   14.9467   -0.6177    4.6409 LP  0  0  0  0  0  0  0  0  0  0  0  0  # atno 8281 bound_to 5176
   16.5395   -0.9590    4.7559 LP  0  0  0  0  0  0  0  0  0  0  0  0  # atno 8282 bound_to 5176
    3.2096   -0.4456    2.3967 LP  0  0  0  0  0  0  0  0  0  0  0  0  # atno 8283 bound_to 5703
    1.7785   -1.0523    2.8972 LP  0  0  0  0  0  0  0  0  0  0  0  0  # atno 8284 bound_to 5703
    4.6718    4.1201    3.2122 LP  0  0  0  0  0  0  0  0  0  0  0  0  # atno 8309 bound_to 8031
    5.6206    5.4104    3.5311 LP  0  0  0  0  0  0  0  0  0  0  0  0  # atno 8310 bound_to 8031
   -3.8646    0.1551   -0.2404 LP  0  0  0  0  0  0  0  0  0  0  0  0  # atno 8323 bound_to 2745
   -3.9808    0.0100    1.3819 LP  0  0  0  0  0  0  0  0  0  0  0  0  # atno 8324 bound_to 2745
   18.8758    6.7679    3.1842 LP  0  0  0  0  0  0  0  0  0  0  0  0  # atno 8335 bound_to 1361
   18.0505    6.8613    1.7782 LP  0  0  0  0  0  0  0  0  0  0  0  0  # atno 8336 bound_to 1361
    4.4985   -8.5997    7.5010 LP  0  0  0  0  0  0  0  0  0  0  0  0  # atno 8342 bound_to 2551
    4.8980   -9.8246    6.4977 LP  0  0  0  0  0  0  0  0  0  0  0  0  # atno 8343 bound_to 2551

