
084|LMW3_p|sdf|84|dock2
  -GOLD-   6 72218303D 1   1.00000     0.00000

 73 77  0  0  0  0  0  0  0  0  1 V2000
   17.2764   -2.9800    3.6194 O   0  0  0  0  0  0  0  0  0  0  0  0
   17.0168   -1.9693    2.9702 C   0  0  0  0  0  0  0  0  0  0  0  0
   15.6770   -1.3607    3.0588 C   0  0  0  0  0  0  0  0  0  0  0  0
   17.9889   -1.3378    2.0167 C   0  0  0  0  0  0  0  0  0  0  0  0
   15.4193   -0.2090    2.3143 C   0  0  0  0  0  0  0  0  0  0  0  0
   14.6655   -1.9238    3.8396 C   0  0  0  0  0  0  0  0  0  0  0  0
   17.7071    0.1578    1.9746 C   0  0  2  0  0  0  0  0  0  0  0  0
   16.3623    0.4102    1.5349 O   0  0  0  0  0  0  0  0  0  0  0  0
   14.1431    0.3590    2.3170 C   0  0  0  0  0  0  0  0  0  0  0  0
   14.8476   -3.0471    4.6001 O   0  0  0  0  0  0  0  0  0  0  0  0
   13.3995   -1.3453    3.8605 C   0  0  0  0  0  0  0  0  0  0  0  0
   18.6774    0.8525    1.0357 C   0  0  0  0  0  0  0  0  0  0  0  0
   13.1275   -0.2123    3.0869 C   0  0  0  0  0  0  0  0  0  0  0  0
   20.0678    0.7436    1.2047 C   0  0  0  0  0  0  0  0  0  0  0  0
   18.1865    1.6555   -0.0069 C   0  0  0  0  0  0  0  0  0  0  0  0
   11.8502    0.2608    3.1950 O   0  0  0  0  0  0  0  0  0  0  0  0
   20.9465    1.4094    0.3464 C   0  0  0  0  0  0  0  0  0  0  0  0
   19.0646    2.3221   -0.8633 C   0  0  0  0  0  0  0  0  0  0  0  0
   11.6756    1.5552    3.7917 C   0  0  2  0  0  0  0  0  0  0  0  0
   20.4354    2.1933   -0.6817 C   0  0  0  0  0  0  0  0  0  0  0  0
   12.4402    1.6465    4.9977 O   0  0  0  0  0  0  0  0  0  0  0  0
   10.1710    1.6985    4.1096 C   0  0  2  0  0  0  0  0  0  0  0  0
   21.2557    2.8604   -1.5420 O   0  0  0  0  0  0  0  0  0  0  0  0
   12.3029    2.9235    5.6427 C   0  0  1  0  0  0  0  0  0  0  0  0
    9.4115    1.7837    2.8938 O   0  0  0  0  0  0  0  0  0  0  0  0
    9.9279    2.9964    4.8868 C   0  0  2  0  0  0  0  0  0  0  0  0
   10.8525    3.0968    6.1025 C   0  0  2  0  0  0  0  0  0  0  0  0
   13.2802    2.9792    6.8222 C   0  0  0  0  0  0  0  0  0  0  0  0
    8.7803    0.5529    2.5200 C   0  0  2  0  0  0  0  0  0  0  0  0
    8.5655    3.0812    5.3416 O   0  0  0  0  0  0  0  0  0  0  0  0
   10.6499    4.3608    6.7379 O   0  0  0  0  0  0  0  0  0  0  0  0
   14.6230    2.9906    6.3290 O   0  0  0  0  0  0  0  0  0  0  0  0
    9.7828   -0.2975    1.9723 O   0  0  0  0  0  0  0  0  0  0  0  0
    7.6887    0.9101    1.4928 C   0  0  2  0  0  0  0  0  0  0  0  0
    9.2968   -1.5403    1.4532 C   0  0  2  0  0  0  0  0  0  0  0  0
    6.6083    1.6071    2.1559 O   0  0  0  0  0  0  0  0  0  0  0  0
    7.1347   -0.3382    0.7969 C   0  0  1  0  0  0  0  0  0  0  0  0
    8.2585   -1.2795    0.3467 C   0  0  1  0  0  0  0  0  0  0  0  0
    8.8322   -2.4792    2.5618 C   0  0  0  0  0  0  0  0  0  0  0  0
    6.2219   -0.9902    1.6946 O   0  0  0  0  0  0  0  0  0  0  0  0
    8.9181   -0.6803   -0.7787 O   0  0  0  0  0  0  0  0  0  0  0  0
   17.8643   -1.7579    1.0406 H   0  0  0  0  0  0  0  0  0  0  0  0
   18.9934   -1.5166    2.3392 H   0  0  0  0  0  0  0  0  0  0  0  0
   17.8303    0.5435    2.9651 H   0  0  0  0  0  0  0  0  0  0  0  0
   13.9508    1.2001    1.7506 H   0  0  0  0  0  0  0  0  0  0  0  0
   14.1668   -3.3402    5.1733 H   0  0  0  0  0  0  0  0  0  0  0  0
   12.6579   -1.7545    4.4499 H   0  0  0  0  0  0  0  0  0  0  0  0
   20.4446    0.1651    1.9718 H   0  0  0  0  0  0  0  0  0  0  0  0
   17.1680    1.7535   -0.1410 H   0  0  0  0  0  0  0  0  0  0  0  0
   21.9666    1.3200    0.4744 H   0  0  0  0  0  0  0  0  0  0  0  0
   18.6964    2.9084   -1.6286 H   0  0  0  0  0  0  0  0  0  0  0  0
   12.0068    2.3304    3.1327 H   0  0  0  0  0  0  0  0  0  0  0  0
    9.8704    0.8455    4.6813 H   0  0  0  0  0  0  0  0  0  0  0  0
   22.1702    2.6582   -1.5691 H   0  0  0  0  0  0  0  0  0  0  0  0
   12.5345    3.7233    4.9706 H   0  0  0  0  0  0  0  0  0  0  0  0
   10.1334    3.8026    4.2139 H   0  0  0  0  0  0  0  0  0  0  0  0
   10.6328    2.3266    6.8119 H   0  0  0  0  0  0  0  0  0  0  0  0
   13.1365    2.1214    7.4453 H   0  0  0  0  0  0  0  0  0  0  0  0
   13.1019    3.8675    7.3914 H   0  0  0  0  0  0  0  0  0  0  0  0
    8.3268    0.0394    3.3420 H   0  0  0  0  0  0  0  0  0  0  0  0
    7.9654    2.9150    4.5979 H   0  0  0  0  0  0  0  0  0  0  0  0
    9.7785    4.3725    7.1639 H   0  0  0  0  0  0  0  0  0  0  0  0
   15.2407    3.0523    7.0743 H   0  0  0  0  0  0  0  0  0  0  0  0
    8.1327    1.5368    0.7477 H   0  0  0  0  0  0  0  0  0  0  0  0
   10.1009   -2.0705    0.9871 H   0  0  0  0  0  0  0  0  0  0  0  0
    5.8697    1.7216    1.5376 H   0  0  0  0  0  0  0  0  0  0  0  0
    6.6145   -0.0513   -0.0930 H   0  0  0  0  0  0  0  0  0  0  0  0
    7.8197   -2.2228    0.0969 H   0  0  0  0  0  0  0  0  0  0  0  0
    7.8923   -2.1408    2.9452 H   0  0  0  0  0  0  0  0  0  0  0  0
    9.5566   -2.4873    3.3493 H   0  0  0  0  0  0  0  0  0  0  0  0
    8.7217   -3.4682    2.1686 H   0  0  0  0  0  0  0  0  0  0  0  0
    5.8058   -1.7413    1.2435 H   0  0  0  0  0  0  0  0  0  0  0  0
    9.4647    0.0615   -0.4757 H   0  0  0  0  0  0  0  0  0  0  0  0
  1  2  2  0  0  0  0
  2  3  1  0  0  0  0
  2  4  1  0  0  0  0
  3  5  2  0  0  0  0
  3  6  1  0  0  0  0
  4  7  1  0  0  0  0
  4 42  1  0  0  0  0
  4 43  1  0  0  0  0
  5  8  1  0  0  0  0
  5  9  1  0  0  0  0
  6 10  1  0  0  0  0
  6 11  2  0  0  0  0
  7 12  1  0  0  0  0
  7  8  1  0  0  0  0
  7 44  1  0  0  0  0
  9 13  2  0  0  0  0
  9 45  1  0  0  0  0
 10 46  1  0  0  0  0
 11 13  1  0  0  0  0
 11 47  1  0  0  0  0
 12 14  2  0  0  0  0
 12 15  1  0  0  0  0
 13 16  1  0  0  0  0
 14 17  1  0  0  0  0
 14 48  1  0  0  0  0
 15 18  2  0  0  0  0
 15 49  1  0  0  0  0
 16 19  1  0  0  0  0
 17 20  2  0  0  0  0
 17 50  1  0  0  0  0
 18 20  1  0  0  0  0
 18 51  1  0  0  0  0
 19 21  1  0  0  0  0
 19 22  1  0  0  0  0
 19 52  1  0  0  0  0
 20 23  1  0  0  0  0
 21 24  1  0  0  0  0
 22 25  1  0  0  0  0
 22 26  1  0  0  0  0
 22 53  1  0  0  0  0
 23 54  1  0  0  0  0
 24 27  1  0  0  0  0
 24 28  1  0  0  0  0
 24 55  1  0  0  0  0
 25 29  1  0  0  0  0
 26 30  1  0  0  0  0
 26 27  1  0  0  0  0
 26 56  1  0  0  0  0
 27 31  1  0  0  0  0
 27 57  1  0  0  0  0
 28 32  1  0  0  0  0
 28 58  1  0  0  0  0
 28 59  1  0  0  0  0
 29 33  1  0  0  0  0
 29 34  1  0  0  0  0
 29 60  1  0  0  0  0
 30 61  1  0  0  0  0
 31 62  1  0  0  0  0
 32 63  1  0  0  0  0
 33 35  1  0  0  0  0
 34 36  1  0  0  0  0
 34 37  1  0  0  0  0
 34 64  1  0  0  0  0
 35 38  1  0  0  0  0
 35 39  1  0  0  0  0
 35 65  1  0  0  0  0
 36 66  1  0  0  0  0
 37 40  1  0  0  0  0
 37 38  1  0  0  0  0
 37 67  1  0  0  0  0
 38 41  1  0  0  0  0
 38 68  1  0  0  0  0
 39 69  1  0  0  0  0
 39 70  1  0  0  0  0
 39 71  1  0  0  0  0
 40 72  1  0  0  0  0
 41 73  1  0  0  0  0
M  END
>  <Code-name>
084

>  <Compound>
Naringin

>  <Specie>
Lentinus lepideus

>  <Reference>
YOON, Ki Nam et al.,

>  <Organism>
Antioxidant Activity

>  <Smiles>
C[C@@H]([C@@H]([C@H]([C@H]1O)O)O)O[C@H]1O[C@H]([C@H]1O)[C@H](Oc2cc(O[C@@H](CC3=O)c(cc4)ccc4O)c3c(O)c2)O[C@H](CO)[C@H]1O

>  <MMFF94 Energy>
215.25

>  <Total Molweight>
580.537

>  <Molweight>
580.537

>  <Monoisotopic Mass>
580.179210

>  <cLogP>
-0.744

>  <cLogS>
-2.733

>  <H-Acceptors>
14

>  <H-Donors>
8

>  <Total Surface Area>
388.35

>  <Relative PSA>
0.43219

>  <Polar Surface Area>
225.06

>  <Druglikeness>
0.64246

>  <Mutagenic>
none

>  <Tumorigenic>
none

>  <Reproductive Effective>
none

>  <Irritant>
none

>  <Nasty Functions>


>  <Shape Index>
0.46341

>  <Molecular Flexibility>
0.30254

>  <Molecular Complexity>
0.95969

>  <Fragments>
1

>  <Non-H Atoms>
41

>  <Non-C/H Atoms>
14

>  <Metal-Atoms>
0

>  <Electronegative Atoms>
14

>  <Stereo Centers>
11

>  <Rotatable Bonds>
6

>  <Rings Closures>
5

>  <Small Rings>
5

>  <Aromatic Rings>
2

>  <Aromatic Atoms>
12

>  <sp3-Atoms>
27

>  <Symmetric atoms>
2

>  <Amides>
0

>  <Amines>
0

>  <Alkyl-Amines>
0

>  <Aromatic Amines>
0

>  <Aromatic Nitrogens>
0

>  <Basic Nitrogens>
0

>  <Acidic Oxygens>
0

>  <Stereo Configuration>
this enantiomer

> <Gold.Version>
5.8.1

> <Gold.Id.Protein>
ID_2|Prot_COX2_5IKQ_Alig|mol2

> <Gold.Goldscore.Fitness>
46.3801

> <Gold.Goldscore.Internal.Vdw>
-8.9606

> <Gold.Goldscore.Internal.Torsion>
-7.6603

> <Gold.Goldscore.External.Vdw>
33.1286

> <Gold.Goldscore.Internal.HBond>
0.0000

> <Gold.Goldscore.External.HBond>
2.2944

> <Gold.Goldscore.Internal.Correction>
-15.1548

> <Gold.Goldscore.Hbonds>
donor molecule, donor type, donor heavy atom, donor atom, acceptor molecule, acceptor atom, score
      P1  H  1377  1390       L1     8  0.27
      P1  H  5703  5712       L1    40  0.06
      P1  H  8031  8036       L1    30  0.11
      L1  H    10    46       P1  5150  0.19

> <Gold.Goldscore.Internal.Vdw.Weighted>
-8.9606

> <Gold.Goldscore.Internal.Torsion.Weighted>
-7.6603

> <Gold.Goldscore.External.Vdw.Weighted>
45.5518

> <Gold.Goldscore.Internal.HBond.Weighted>
0.0000

> <Gold.Goldscore.External.HBond.Weighted>
2.2944

> <Gold.Goldscore.Internal.Correction.Weighted>
-15.1548

> <Gold.Protein.RotatedTorsions>
[ 5077 5068 5067 5065 ] final   90.26 input  179.94 | X-H torsion
[ 5157 5152 5151 5148 ] final   42.85 input -179.92 | X-H torsion
[ 5185 5176 5175 5173 ] final -160.51 input -179.99 | X-H torsion
[ 5712 5703 5702 5700 ] final  104.65 input  180.00 | X-H torsion
[ 8036 8031 8030 8027 ] final -136.52 input -179.94 | X-H torsion
[ 2749 2745 2743 2740 ] final  141.47 input  -60.05 | X-H torsion
[ 1366 1361 1360 1357 ] final   13.50 input  -60.09 | X-H torsion
[ 2556 2551 2550 2547 ] final  123.01 input   59.97 | X-H torsion

> <Gold.Protein.ActiveResidues>
 PRO86   VAL89   HIS90   LEU93   THR94   ILE112  MET113  TYR115  VAL116  LEU117 
 THR118  SER119  ARG120  SER121  LEU123  ILE124  GLN192  SER194  PHE198  PHE201 
 ALA202  GLN203  PHE205  THR206  PHE209  PHE210  VAL228  ILE341  ILE343  VAL344 
 ILE345  GLU346  ASP347  TYR348  VAL349  GLN350  HIS351  LEU352  SER353  GLY354 
 TYR355  PHE357  LEU359  LYS360  GLU380  PHE381  ASN382  THR383  LEU384  TYR385 
 HIS386  TRP387  LEU390  VAL434  LEU507  ARG513  ALA516  ILE517  PHE518  GLY519 
 GLU520  THR521  MET522  VAL523  GLU524  VAL525  GLY526  ALA527  PRO528  PHE529 
 SER530  LEU531  LYS532  GLY533  LEU534  MET535  COH609 

> <Gold.Protein.RotatedAtoms>
   17.6544    7.5321    2.2188 H   0  0  0  0  0  0  0  0  0  0  0  0  # atno 1366 bound_to 1361
    4.9092   -9.8814    6.6995 H   0  0  0  0  0  0  0  0  0  0  0  0  # atno 2556 bound_to 2551
   -3.1799   -0.2054   -0.1365 H   0  0  0  0  0  0  0  0  0  0  0  0  # atno 2749 bound_to 2745
    0.8530   -1.5186    3.9439 H   0  0  0  0  0  0  0  0  0  0  0  0  # atno 5077 bound_to 5068
   12.4734   -2.8393    9.1938 H   0  0  0  0  0  0  0  0  0  0  0  0  # atno 5157 bound_to 5152
   15.8564    0.3991    5.1008 H   0  0  0  0  0  0  0  0  0  0  0  0  # atno 5185 bound_to 5176
    3.0067   -0.6158    2.4323 H   0  0  0  0  0  0  0  0  0  0  0  0  # atno 5712 bound_to 5703
    6.1832    4.1323    3.6891 H   0  0  0  0  0  0  0  0  0  0  0  0  # atno 8036 bound_to 8031
    1.1855   -2.9416    4.2987 LP  0  0  0  0  0  0  0  0  0  0  0  0  # atno 8267 bound_to 5068
    2.2775   -1.9086    3.6606 LP  0  0  0  0  0  0  0  0  0  0  0  0  # atno 8268 bound_to 5068
   11.2166   -2.0272    9.3547 LP  0  0  0  0  0  0  0  0  0  0  0  0  # atno 8279 bound_to 5152
   12.6986   -1.3518    9.2369 LP  0  0  0  0  0  0  0  0  0  0  0  0  # atno 8280 bound_to 5152
   14.9989   -0.7351    4.6142 LP  0  0  0  0  0  0  0  0  0  0  0  0  # atno 8281 bound_to 5176
   16.6170   -0.8604    4.7946 LP  0  0  0  0  0  0  0  0  0  0  0  0  # atno 8282 bound_to 5176
    1.6122   -0.8861    2.9232 LP  0  0  0  0  0  0  0  0  0  0  0  0  # atno 8283 bound_to 5703
    2.1507    0.6127    2.5624 LP  0  0  0  0  0  0  0  0  0  0  0  0  # atno 8284 bound_to 5703
    4.7596    3.9456    3.2439 LP  0  0  0  0  0  0  0  0  0  0  0  0  # atno 8309 bound_to 8031
    5.4337    5.4162    3.4663 LP  0  0  0  0  0  0  0  0  0  0  0  0  # atno 8310 bound_to 8031
   -4.3310    0.3041    0.6873 LP  0  0  0  0  0  0  0  0  0  0  0  0  # atno 8323 bound_to 2745
   -3.0717   -0.5110    1.3326 LP  0  0  0  0  0  0  0  0  0  0  0  0  # atno 8324 bound_to 2745
   18.3606    7.4473    3.5447 LP  0  0  0  0  0  0  0  0  0  0  0  0  # atno 8335 bound_to 1361
   18.7182    6.4701    2.2862 LP  0  0  0  0  0  0  0  0  0  0  0  0  # atno 8336 bound_to 1361
    5.1834   -9.8210    8.1778 LP  0  0  0  0  0  0  0  0  0  0  0  0  # atno 8342 bound_to 2551
    4.4741   -8.6000    7.3575 LP  0  0  0  0  0  0  0  0  0  0  0  0  # atno 8343 bound_to 2551

