
086|LMW3_p|sdf|86|dock5
  -GOLD-   6 72218313D 1   1.00000     0.00000

 16 17  0  0  0  0  0  0  0  0  1 V2000
   13.1025   -2.2438    3.7153 O   0  0  0  0  0  0  0  0  0  0  0  0
   12.0540   -2.8607    3.6998 C   0  0  0  0  0  0  0  0  0  0  0  0
   11.9313   -4.2839    3.5384 C   0  0  0  0  0  0  0  0  0  0  0  0
   10.6552   -2.3204    3.8404 C   0  0  0  0  0  0  0  0  0  0  0  0
   10.5781   -4.5515    3.5809 C   0  0  0  0  0  0  0  0  0  0  0  0
   12.8913   -5.2622    3.3701 C   0  0  0  0  0  0  0  0  0  0  0  0
    9.7644   -3.4623    3.7543 O   0  0  0  0  0  0  0  0  0  0  0  0
   10.1184   -5.8462    3.4530 C   0  0  0  0  0  0  0  0  0  0  0  0
   12.4400   -6.5763    3.2395 C   0  0  0  0  0  0  0  0  0  0  0  0
   11.0624   -6.8661    3.2807 C   0  0  0  0  0  0  0  0  0  0  0  0
   10.4453   -1.6271    3.0529 H   0  0  0  0  0  0  0  0  0  0  0  0
   10.5313   -1.8008    4.7677 H   0  0  0  0  0  0  0  0  0  0  0  0
   13.8969   -5.0319    3.3423 H   0  0  0  0  0  0  0  0  0  0  0  0
    9.1086   -6.0568    3.4834 H   0  0  0  0  0  0  0  0  0  0  0  0
   13.1207   -7.3414    3.1116 H   0  0  0  0  0  0  0  0  0  0  0  0
   10.7445   -7.8431    3.1827 H   0  0  0  0  0  0  0  0  0  0  0  0
  1  2  2  0  0  0  0
  2  3  1  0  0  0  0
  2  4  1  0  0  0  0
  3  5  2  0  0  0  0
  3  6  1  0  0  0  0
  4  7  1  0  0  0  0
  4 11  1  0  0  0  0
  4 12  1  0  0  0  0
  5  8  1  0  0  0  0
  5  7  1  0  0  0  0
  6  9  2  0  0  0  0
  6 13  1  0  0  0  0
  8 10  2  0  0  0  0
  8 14  1  0  0  0  0
  9 10  1  0  0  0  0
  9 15  1  0  0  0  0
 10 16  1  0  0  0  0
M  END
>  <Code-name>
086

>  <Compound>
Benzofuran-3(2H)-one

>  <Specie>
Panus lecomtei

>  <Reference>
Si-Xian (2020)

>  <Organism>
Antibacterial Activity

>  <Smiles>
O=C1c(cccc2)c2OC1

>  <MMFF94 Energy>
43.139

>  <Total Molweight>
134.134

>  <Molweight>
134.134

>  <Monoisotopic Mass>
134.036780

>  <cLogP>
1.3346

>  <cLogS>
-2.164

>  <H-Acceptors>
2

>  <H-Donors>
0

>  <Total Surface Area>
101.27

>  <Relative PSA>
0.22751

>  <Polar Surface Area>
26.3

>  <Druglikeness>
-0.25128

>  <Mutagenic>
none

>  <Tumorigenic>
none

>  <Reproductive Effective>
none

>  <Irritant>
none

>  <Nasty Functions>


>  <Shape Index>
0.6

>  <Molecular Flexibility>
0

>  <Molecular Complexity>
0.75684

>  <Fragments>
1

>  <Non-H Atoms>
10

>  <Non-C/H Atoms>
2

>  <Metal-Atoms>
0

>  <Electronegative Atoms>
2

>  <Stereo Centers>
0

>  <Rotatable Bonds>
0

>  <Rings Closures>
2

>  <Small Rings>
2

>  <Aromatic Rings>
1

>  <Aromatic Atoms>
6

>  <sp3-Atoms>
2

>  <Symmetric atoms>
0

>  <Amides>
0

>  <Amines>
0

>  <Alkyl-Amines>
0

>  <Aromatic Amines>
0

>  <Aromatic Nitrogens>
0

>  <Basic Nitrogens>
0

>  <Acidic Oxygens>
0

>  <Stereo Configuration>


> <Gold.Version>
5.8.1

> <Gold.Id.Protein>
ID_2|Prot_COX2_5IKQ_Alig|mol2

> <Gold.Goldscore.Fitness>
34.3030

> <Gold.Goldscore.Internal.Vdw>
-0.0000

> <Gold.Goldscore.Internal.Torsion>
-0.0000

> <Gold.Goldscore.External.Vdw>
24.4665

> <Gold.Goldscore.Internal.HBond>
0.0000

> <Gold.Goldscore.External.HBond>
0.6617

> <Gold.Goldscore.Internal.Correction>
0.0000

> <Gold.Goldscore.Hbonds>
donor molecule, donor type, donor heavy atom, donor atom, acceptor molecule, acceptor atom, score
      P1  H  5176  5185       L1     1  0.33

> <Gold.Goldscore.Internal.Vdw.Weighted>
-0.0000

> <Gold.Goldscore.Internal.Torsion.Weighted>
-0.0000

> <Gold.Goldscore.External.Vdw.Weighted>
33.6414

> <Gold.Goldscore.Internal.HBond.Weighted>
0.0000

> <Gold.Goldscore.External.HBond.Weighted>
0.6617

> <Gold.Goldscore.Internal.Correction.Weighted>
0.0000

> <Gold.Protein.RotatedTorsions>
[ 5077 5068 5067 5065 ] final   65.49 input  179.94 | X-H torsion
[ 5157 5152 5151 5148 ] final  -84.51 input -179.92 | X-H torsion
[ 5185 5176 5175 5173 ] final   66.01 input -179.99 | X-H torsion
[ 5712 5703 5702 5700 ] final  150.71 input  180.00 | X-H torsion
[ 8036 8031 8030 8027 ] final -174.50 input -179.94 | X-H torsion
[ 2749 2745 2743 2740 ] final   81.40 input  -60.05 | X-H torsion
[ 1366 1361 1360 1357 ] final   51.82 input  -60.09 | X-H torsion
[ 2556 2551 2550 2547 ] final -110.39 input   59.97 | X-H torsion

> <Gold.Protein.ActiveResidues>
 PRO86   VAL89   HIS90   LEU93   THR94   ILE112  MET113  TYR115  VAL116  LEU117 
 THR118  SER119  ARG120  SER121  LEU123  ILE124  GLN192  SER194  PHE198  PHE201 
 ALA202  GLN203  PHE205  THR206  PHE209  PHE210  VAL228  ILE341  ILE343  VAL344 
 ILE345  GLU346  ASP347  TYR348  VAL349  GLN350  HIS351  LEU352  SER353  GLY354 
 TYR355  PHE357  LEU359  LYS360  GLU380  PHE381  ASN382  THR383  LEU384  TYR385 
 HIS386  TRP387  LEU390  VAL434  LEU507  ARG513  ALA516  ILE517  PHE518  GLY519 
 GLU520  THR521  MET522  VAL523  GLU524  VAL525  GLY526  ALA527  PRO528  PHE529 
 SER530  LEU531  LYS532  GLY533  LEU534  MET535  COH609 

> <Gold.Protein.RotatedAtoms>
   17.8850    7.1657    1.9329 H   0  0  0  0  0  0  0  0  0  0  0  0  # atno 1366 bound_to 1361
    4.5134   -8.7555    7.4545 H   0  0  0  0  0  0  0  0  0  0  0  0  # atno 2556 bound_to 2551
   -3.8644    0.1799   -0.0462 H   0  0  0  0  0  0  0  0  0  0  0  0  # atno 2749 bound_to 2745
    0.6830   -1.7791    4.0776 H   0  0  0  0  0  0  0  0  0  0  0  0  # atno 5077 bound_to 5068
   11.3806   -1.9426    9.2974 H   0  0  0  0  0  0  0  0  0  0  0  0  # atno 5157 bound_to 5152
   15.2329   -0.8322    4.6634 H   0  0  0  0  0  0  0  0  0  0  0  0  # atno 5185 bound_to 5176
    2.9762   -0.0044    2.3582 H   0  0  0  0  0  0  0  0  0  0  0  0  # atno 5712 bound_to 5703
    5.8410    3.7679    3.5733 H   0  0  0  0  0  0  0  0  0  0  0  0  # atno 8036 bound_to 8031
    1.5786   -2.9798    4.2105 LP  0  0  0  0  0  0  0  0  0  0  0  0  # atno 8267 bound_to 5068
    2.0879   -1.5583    3.5887 LP  0  0  0  0  0  0  0  0  0  0  0  0  # atno 8268 bound_to 5068
   12.7939   -1.4300    9.2279 LP  0  0  0  0  0  0  0  0  0  0  0  0  # atno 8279 bound_to 5152
   12.4283   -3.0215    9.2398 LP  0  0  0  0  0  0  0  0  0  0  0  0  # atno 8280 bound_to 5152
   16.7136   -0.6697    4.8624 LP  0  0  0  0  0  0  0  0  0  0  0  0  # atno 8281 bound_to 5176
   15.6510    0.5525    5.0715 LP  0  0  0  0  0  0  0  0  0  0  0  0  # atno 8282 bound_to 5176
    2.2433   -1.2443    2.7875 LP  0  0  0  0  0  0  0  0  0  0  0  0  # atno 8283 bound_to 5703
    1.5562    0.2371    2.7871 LP  0  0  0  0  0  0  0  0  0  0  0  0  # atno 8284 bound_to 5703
    4.6091    4.5383    3.1873 LP  0  0  0  0  0  0  0  0  0  0  0  0  # atno 8309 bound_to 8031
    5.9947    5.2607    3.6618 LP  0  0  0  0  0  0  0  0  0  0  0  0  # atno 8310 bound_to 8031
   -3.8856   -0.0528    1.4400 LP  0  0  0  0  0  0  0  0  0  0  0  0  # atno 8323 bound_to 2745
   -2.6971   -0.6155    0.4717 LP  0  0  0  0  0  0  0  0  0  0  0  0  # atno 8324 bound_to 2745
   17.8947    7.7788    3.3070 LP  0  0  0  0  0  0  0  0  0  0  0  0  # atno 8335 bound_to 1361
   18.9083    6.5769    2.8658 LP  0  0  0  0  0  0  0  0  0  0  0  0  # atno 8336 bound_to 1361
    4.9165   -9.8585    6.5136 LP  0  0  0  0  0  0  0  0  0  0  0  0  # atno 8342 bound_to 2551
    5.2145   -9.9095    8.1184 LP  0  0  0  0  0  0  0  0  0  0  0  0  # atno 8343 bound_to 2551

