
087|LMW3_p|sdf|87|dock1
  -GOLD-   6 72218323D 1   1.00000     0.00000

 30 30  0  0  0  0  0  0  0  0  3 V2000
    7.2867    2.3163    4.1194 O   0  0  0  0  0  0  0  0  0  0  0  0
    8.4422    2.5325    3.8036 C   0  0  0  0  0  0  0  0  0  0  0  0
    8.8778    3.7647    3.4967 O   0  5  0  0  0  0  0  0  0  0  0  0
    9.5310    1.5380    3.8131 C   0  0  0  0  0  0  0  0  0  0  0  0
    9.3238    0.1855    3.5113 C   0  0  0  0  0  0  0  0  0  0  0  0
   10.8053    1.9982    4.1848 C   0  0  0  0  0  0  0  0  0  0  0  0
    8.0666   -0.2849    3.2672 O   0  0  0  0  0  0  0  0  0  0  0  0
   10.3915   -0.7058    3.6152 C   0  0  0  0  0  0  0  0  0  0  0  0
   11.8770    1.1102    4.2497 C   0  0  0  0  0  0  0  0  0  0  0  0
    7.6689   -0.5146    1.8950 C   0  0  0  0  0  0  0  0  0  0  0  0
   11.6621   -0.2398    3.9637 C   0  0  0  0  0  0  0  0  0  0  0  0
   13.1638    1.4247    4.5870 O   0  0  0  0  0  0  0  0  0  0  0  0
    6.1262   -0.5276    1.9173 C   0  0  0  0  0  0  0  0  0  0  0  0
    8.1376    0.5345    0.8723 C   0  0  0  0  0  0  0  0  0  0  0  0
    8.1295   -1.9202    1.4890 C   0  0  0  0  0  0  0  0  0  0  0  0
   13.3598    2.6139    5.3433 C   0  0  0  0  0  0  0  0  0  0  0  0
    5.3878   -0.4637    2.8892 O   0  0  0  0  0  0  0  0  0  0  0  0
    5.5692   -0.6565    0.6901 O   0  5  0  0  0  0  0  0  0  0  0  0
   10.9478    2.9952    4.4099 H   0  0  0  0  0  0  0  0  0  0  0  0
   10.2431   -1.7109    3.4343 H   0  0  0  0  0  0  0  0  0  0  0  0
   12.4521   -0.9022    4.0105 H   0  0  0  0  0  0  0  0  0  0  0  0
    9.2065    0.5825    0.8749 H   0  0  0  0  0  0  0  0  0  0  0  0
    7.7370    1.4916    1.1338 H   0  0  0  0  0  0  0  0  0  0  0  0
    7.7954    0.2593   -0.1034 H   0  0  0  0  0  0  0  0  0  0  0  0
    9.1838   -1.9111    1.3066 H   0  0  0  0  0  0  0  0  0  0  0  0
    7.6162   -2.2207    0.5996 H   0  0  0  0  0  0  0  0  0  0  0  0
    7.9099   -2.6091    2.2776 H   0  0  0  0  0  0  0  0  0  0  0  0
   14.3731    2.6569    5.6840 H   0  0  0  0  0  0  0  0  0  0  0  0
   12.7000    2.6137    6.1857 H   0  0  0  0  0  0  0  0  0  0  0  0
   13.1536    3.4653    4.7289 H   0  0  0  0  0  0  0  0  0  0  0  0
  1  2  2  0  0  0  0
  2  3  1  0  0  0  0
  2  4  1  0  0  0  0
  4  5  2  0  0  0  0
  4  6  1  0  0  0  0
  5  7  1  0  0  0  0
  5  8  1  0  0  0  0
  6  9  2  0  0  0  0
  6 19  1  0  0  0  0
  7 10  1  0  0  0  0
  8 11  2  0  0  0  0
  8 20  1  0  0  0  0
  9 12  1  0  0  0  0
  9 11  1  0  0  0  0
 10 13  1  0  0  0  0
 10 14  1  0  0  0  0
 10 15  1  0  0  0  0
 11 21  1  0  0  0  0
 12 16  1  0  0  0  0
 13 17  2  0  0  0  0
 13 18  1  0  0  0  0
 14 22  1  0  0  0  0
 14 23  1  0  0  0  0
 14 24  1  0  0  0  0
 15 25  1  0  0  0  0
 15 26  1  0  0  0  0
 15 27  1  0  0  0  0
 16 28  1  0  0  0  0
 16 29  1  0  0  0  0
 16 30  1  0  0  0  0
M  CHG  1   3  -1
M  CHG  1  18  -1
M  END
>  <Code-name>
087

>  <Compound>
2-((2-carboxypropan-2-yl)oxy)-5-methoxybenzioc acid

>  <Specie>
Panus lecomtei

>  <Reference>
Si-Xian (2020)

>  <Organism>
Antibacterial Activity

>  <Smiles>
CC(C)(C(O)=O)Oc(ccc(OC)c1)c1C(O)=O

>  <MMFF94 Energy>
42.534

>  <Total Molweight>
254.237

>  <Molweight>
254.237

>  <Monoisotopic Mass>
254.079040

>  <cLogP>
0.8746

>  <cLogS>
-1.927

>  <H-Acceptors>
6

>  <H-Donors>
2

>  <Total Surface Area>
188.65

>  <Relative PSA>
0.38314

>  <Polar Surface Area>
93.06

>  <Druglikeness>
-2.676

>  <Mutagenic>
none

>  <Tumorigenic>
none

>  <Reproductive Effective>
none

>  <Irritant>
none

>  <Nasty Functions>


>  <Shape Index>
0.55556

>  <Molecular Flexibility>
0.57219

>  <Molecular Complexity>
0.72768

>  <Fragments>
1

>  <Non-H Atoms>
18

>  <Non-C/H Atoms>
6

>  <Metal-Atoms>
0

>  <Electronegative Atoms>
6

>  <Stereo Centers>
0

>  <Rotatable Bonds>
5

>  <Rings Closures>
1

>  <Small Rings>
1

>  <Aromatic Rings>
1

>  <Aromatic Atoms>
6

>  <sp3-Atoms>
8

>  <Symmetric atoms>
1

>  <Amides>
0

>  <Amines>
0

>  <Alkyl-Amines>
0

>  <Aromatic Amines>
0

>  <Aromatic Nitrogens>
0

>  <Basic Nitrogens>
0

>  <Acidic Oxygens>
2

>  <Stereo Configuration>


> <Gold.Version>
5.8.1

> <Gold.Id.Protein>
ID_2|Prot_COX2_5IKQ_Alig|mol2

> <Gold.Goldscore.Fitness>
53.1754

> <Gold.Goldscore.Internal.Vdw>
0.3935

> <Gold.Goldscore.Internal.Torsion>
-7.6603

> <Gold.Goldscore.External.Vdw>
32.0571

> <Gold.Goldscore.Internal.HBond>
0.0000

> <Gold.Goldscore.External.HBond>
11.1283

> <Gold.Goldscore.Internal.Correction>
-5.2356

> <Gold.Goldscore.Hbonds>
donor molecule, donor type, donor heavy atom, donor atom, acceptor molecule, acceptor atom, score
      P1  H  5176  5185       L1    12  0.94
      P1  H  5703  5712       L1    17  1.00
      P1  H  8031  8036       L1     1  0.54

> <Gold.Goldscore.Internal.Vdw.Weighted>
0.3935

> <Gold.Goldscore.Internal.Torsion.Weighted>
-7.6603

> <Gold.Goldscore.External.Vdw.Weighted>
44.0784

> <Gold.Goldscore.Internal.HBond.Weighted>
0.0000

> <Gold.Goldscore.External.HBond.Weighted>
11.1283

> <Gold.Goldscore.Internal.Correction.Weighted>
-5.2356

> <Gold.Protein.RotatedTorsions>
[ 5077 5068 5067 5065 ] final  122.39 input  179.94 | X-H torsion
[ 5157 5152 5151 5148 ] final -113.40 input -179.92 | X-H torsion
[ 5185 5176 5175 5173 ] final  136.62 input -179.99 | X-H torsion
[ 5712 5703 5702 5700 ] final  125.68 input  180.00 | X-H torsion
[ 8036 8031 8030 8027 ] final -156.79 input -179.94 | X-H torsion
[ 2749 2745 2743 2740 ] final   56.59 input  -60.05 | X-H torsion
[ 1366 1361 1360 1357 ] final   81.25 input  -60.09 | X-H torsion
[ 2556 2551 2550 2547 ] final -140.81 input   59.97 | X-H torsion

> <Gold.Protein.ActiveResidues>
 PRO86   VAL89   HIS90   LEU93   THR94   ILE112  MET113  TYR115  VAL116  LEU117 
 THR118  SER119  ARG120  SER121  LEU123  ILE124  GLN192  SER194  PHE198  PHE201 
 ALA202  GLN203  PHE205  THR206  PHE209  PHE210  VAL228  ILE341  ILE343  VAL344 
 ILE345  GLU346  ASP347  TYR348  VAL349  GLN350  HIS351  LEU352  SER353  GLY354 
 TYR355  PHE357  LEU359  LYS360  GLU380  PHE381  ASN382  THR383  LEU384  TYR385 
 HIS386  TRP387  LEU390  VAL434  LEU507  ARG513  ALA516  ILE517  PHE518  GLY519 
 GLU520  THR521  MET522  VAL523  GLU524  VAL525  GLY526  ALA527  PRO528  PHE529 
 SER530  LEU531  LYS532  GLY533  LEU534  MET535  COH609 

> <Gold.Protein.RotatedAtoms>
   18.1701    6.8833    1.9199 H   0  0  0  0  0  0  0  0  0  0  0  0  # atno 1366 bound_to 1361
    4.4845   -8.8418    7.0498 H   0  0  0  0  0  0  0  0  0  0  0  0  # atno 2556 bound_to 2551
   -4.0713    0.2665    0.2084 H   0  0  0  0  0  0  0  0  0  0  0  0  # atno 2749 bound_to 2745
    1.2189   -1.3385    3.7873 H   0  0  0  0  0  0  0  0  0  0  0  0  # atno 5077 bound_to 5068
   11.5617   -1.5923    9.2863 H   0  0  0  0  0  0  0  0  0  0  0  0  # atno 5157 bound_to 5152
   15.1431    0.0420    4.9027 H   0  0  0  0  0  0  0  0  0  0  0  0  # atno 5185 bound_to 5176
    3.0526   -0.3365    2.3810 H   0  0  0  0  0  0  0  0  0  0  0  0  # atno 5712 bound_to 5703
    6.0289    3.9075    3.6373 H   0  0  0  0  0  0  0  0  0  0  0  0  # atno 8036 bound_to 8031
    0.7440   -2.6634    4.3168 LP  0  0  0  0  0  0  0  0  0  0  0  0  # atno 8267 bound_to 5068
    2.2808   -2.4024    3.8301 LP  0  0  0  0  0  0  0  0  0  0  0  0  # atno 8268 bound_to 5068
   13.0459   -1.8268    9.2017 LP  0  0  0  0  0  0  0  0  0  0  0  0  # atno 8279 bound_to 5152
   11.9597   -3.0437    9.2793 LP  0  0  0  0  0  0  0  0  0  0  0  0  # atno 8280 bound_to 5152
   15.8361   -1.2514    4.5778 LP  0  0  0  0  0  0  0  0  0  0  0  0  # atno 8281 bound_to 5176
   16.6362    0.0847    5.0689 LP  0  0  0  0  0  0  0  0  0  0  0  0  # atno 8282 bound_to 5176
    1.8669   -1.1137    2.8797 LP  0  0  0  0  0  0  0  0  0  0  0  0  # atno 8283 bound_to 5703
    1.8409    0.5052    2.6675 LP  0  0  0  0  0  0  0  0  0  0  0  0  # atno 8284 bound_to 5703
    4.6325    4.2490    3.1976 LP  0  0  0  0  0  0  0  0  0  0  0  0  # atno 8309 bound_to 8031
    5.7458    5.3826    3.5747 LP  0  0  0  0  0  0  0  0  0  0  0  0  # atno 8310 bound_to 8031
   -3.5456   -0.2601    1.5160 LP  0  0  0  0  0  0  0  0  0  0  0  0  # atno 8323 bound_to 2745
   -2.7894   -0.5121    0.0908 LP  0  0  0  0  0  0  0  0  0  0  0  0  # atno 8324 bound_to 2745
   17.6162    7.8567    2.9248 LP  0  0  0  0  0  0  0  0  0  0  0  0  # atno 8335 bound_to 1361
   18.8457    6.8369    3.2636 LP  0  0  0  0  0  0  0  0  0  0  0  0  # atno 8336 bound_to 1361
    5.1220  -10.1858    6.8231 LP  0  0  0  0  0  0  0  0  0  0  0  0  # atno 8342 bound_to 2551
    5.0437   -9.4789    8.2930 LP  0  0  0  0  0  0  0  0  0  0  0  0  # atno 8343 bound_to 2551

