
088|LMW3_p|sdf|88|dock2
  -GOLD-   6 72218333D 1   1.00000     0.00000

 32 33  0  0  0  0  0  0  0  0  1 V2000
   10.6434    2.7024    4.8659 O   0  0  0  0  0  0  0  0  0  0  0  0
   10.0382    1.8132    4.0220 C   0  0  0  0  0  0  0  0  0  0  0  0
   11.9504    2.3297    5.3459 C   0  0  0  0  0  0  0  0  0  0  0  0
   10.7203    0.8224    3.3130 C   0  0  0  0  0  0  0  0  0  0  0  0
    8.6596    1.9559    3.8797 C   0  0  0  0  0  0  0  0  0  0  0  0
   12.8518    1.8559    4.1807 C   0  0  2  0  0  0  0  0  0  0  0  0
   12.5482    3.6145    5.9478 C   0  0  0  0  0  0  0  0  0  0  0  0
   11.7969    1.3127    6.4912 C   0  0  0  0  0  0  0  0  0  0  0  0
    9.9901   -0.0578    2.4911 C   0  0  0  0  0  0  0  0  0  0  0  0
   12.2129    0.7000    3.3979 C   0  0  1  0  0  0  0  0  0  0  0  0
    7.9478    1.0861    3.0535 C   0  0  0  0  0  0  0  0  0  0  0  0
   14.1670    1.4812    4.6170 O   0  0  0  0  0  0  0  0  0  0  0  0
    8.6057    0.0684    2.3621 C   0  0  0  0  0  0  0  0  0  0  0  0
   12.5525   -0.5526    4.0052 O   0  0  0  0  0  0  0  0  0  0  0  0
    7.7933   -0.7203    1.5957 O   0  0  0  0  0  0  0  0  0  0  0  0
    8.3913   -1.3647    0.4783 C   0  0  0  0  0  0  0  0  0  0  0  0
    8.1643    2.7063    4.3863 H   0  0  0  0  0  0  0  0  0  0  0  0
   12.9500    2.6988    3.5290 H   0  0  0  0  0  0  0  0  0  0  0  0
   11.8185    4.0904    6.5689 H   0  0  0  0  0  0  0  0  0  0  0  0
   12.8330    4.2789    5.1590 H   0  0  0  0  0  0  0  0  0  0  0  0
   13.4086    3.3670    6.5337 H   0  0  0  0  0  0  0  0  0  0  0  0
   11.1989    0.4896    6.1596 H   0  0  0  0  0  0  0  0  0  0  0  0
   11.3226    1.7846    7.3261 H   0  0  0  0  0  0  0  0  0  0  0  0
   12.7625    0.9567    6.7838 H   0  0  0  0  0  0  0  0  0  0  0  0
   10.4841   -0.8047    1.9782 H   0  0  0  0  0  0  0  0  0  0  0  0
   12.6011    0.7451    2.4018 H   0  0  0  0  0  0  0  0  0  0  0  0
    6.9266    1.1963    2.9528 H   0  0  0  0  0  0  0  0  0  0  0  0
   14.6402    2.2680    4.9297 H   0  0  0  0  0  0  0  0  0  0  0  0
   13.5150   -0.6716    3.9846 H   0  0  0  0  0  0  0  0  0  0  0  0
    9.0491   -2.1359    0.8212 H   0  0  0  0  0  0  0  0  0  0  0  0
    8.9469   -0.6490   -0.0909 H   0  0  0  0  0  0  0  0  0  0  0  0
    7.6280   -1.7941   -0.1364 H   0  0  0  0  0  0  0  0  0  0  0  0
  1  2  1  0  0  0  0
  1  3  1  0  0  0  0
  2  4  2  0  0  0  0
  2  5  1  0  0  0  0
  3  6  1  0  0  0  0
  3  7  1  0  0  0  0
  3  8  1  0  0  0  0
  4  9  1  0  0  0  0
  4 10  1  0  0  0  0
  5 11  2  0  0  0  0
  5 17  1  0  0  0  0
  6 12  1  0  0  0  0
  6 10  1  0  0  0  0
  6 18  1  0  0  0  0
  7 19  1  0  0  0  0
  7 20  1  0  0  0  0
  7 21  1  0  0  0  0
  8 22  1  0  0  0  0
  8 23  1  0  0  0  0
  8 24  1  0  0  0  0
  9 13  2  0  0  0  0
  9 25  1  0  0  0  0
 10 14  1  0  0  0  0
 10 26  1  0  0  0  0
 11 13  1  0  0  0  0
 11 27  1  0  0  0  0
 12 28  1  0  0  0  0
 13 15  1  0  0  0  0
 14 29  1  0  0  0  0
 15 16  1  0  0  0  0
 16 30  1  0  0  0  0
 16 31  1  0  0  0  0
 16 32  1  0  0  0  0
M  END
>  <Code-name>
088

>  <Compound>
(3S,4S)-3,4-di-hydroxy-6-methoxy-2,2-dimethylchromom

>  <Specie>
Panus lecomtei

>  <Reference>
Si-Xian (2020)

>  <Organism>
Antibacterial Activity

>  <Smiles>
CC(C)([C@H]([C@H]1O)O)Oc(cc2)c1cc2OC

>  <MMFF94 Energy>
71.043

>  <Total Molweight>
224.255

>  <Molweight>
224.255

>  <Monoisotopic Mass>
224.104860

>  <cLogP>
1.202

>  <cLogS>
-1.811

>  <H-Acceptors>
4

>  <H-Donors>
2

>  <Total Surface Area>
164.65

>  <Relative PSA>
0.2806

>  <Polar Surface Area>
58.92

>  <Druglikeness>
-1.9162

>  <Mutagenic>
none

>  <Tumorigenic>
none

>  <Reproductive Effective>
none

>  <Irritant>
none

>  <Nasty Functions>


>  <Shape Index>
0.5625

>  <Molecular Flexibility>
0.22404

>  <Molecular Complexity>
0.79328

>  <Fragments>
1

>  <Non-H Atoms>
16

>  <Non-C/H Atoms>
4

>  <Metal-Atoms>
0

>  <Electronegative Atoms>
4

>  <Stereo Centers>
2

>  <Rotatable Bonds>
1

>  <Rings Closures>
2

>  <Small Rings>
2

>  <Aromatic Rings>
1

>  <Aromatic Atoms>
6

>  <sp3-Atoms>
10

>  <Symmetric atoms>
1

>  <Amides>
0

>  <Amines>
0

>  <Alkyl-Amines>
0

>  <Aromatic Amines>
0

>  <Aromatic Nitrogens>
0

>  <Basic Nitrogens>
0

>  <Acidic Oxygens>
0

>  <Stereo Configuration>
this enantiomer

> <Gold.Version>
5.8.1

> <Gold.Id.Protein>
ID_2|Prot_COX2_5IKQ_Alig|mol2

> <Gold.Goldscore.Fitness>
42.5745

> <Gold.Goldscore.Internal.Vdw>
-4.9040

> <Gold.Goldscore.Internal.Torsion>
-1.5307

> <Gold.Goldscore.External.Vdw>
30.7998

> <Gold.Goldscore.Internal.HBond>
0.0000

> <Gold.Goldscore.External.HBond>
2.3793

> <Gold.Goldscore.Internal.Correction>
-4.2802

> <Gold.Goldscore.Hbonds>
donor molecule, donor type, donor heavy atom, donor atom, acceptor molecule, acceptor atom, score
      P1  H  5176  5185       L1    12  1.00
      L1  H    14    29       P1  5176  0.19

> <Gold.Goldscore.Internal.Vdw.Weighted>
-4.9040

> <Gold.Goldscore.Internal.Torsion.Weighted>
-1.5307

> <Gold.Goldscore.External.Vdw.Weighted>
42.3497

> <Gold.Goldscore.Internal.HBond.Weighted>
0.0000

> <Gold.Goldscore.External.HBond.Weighted>
2.3793

> <Gold.Goldscore.Internal.Correction.Weighted>
-4.2802

> <Gold.Protein.RotatedTorsions>
[ 5077 5068 5067 5065 ] final   93.05 input  179.94 | X-H torsion
[ 5157 5152 5151 5148 ] final  111.75 input -179.92 | X-H torsion
[ 5185 5176 5175 5173 ] final  157.54 input -179.99 | X-H torsion
[ 5712 5703 5702 5700 ] final  108.13 input  180.00 | X-H torsion
[ 8036 8031 8030 8027 ] final -177.09 input -179.94 | X-H torsion
[ 2749 2745 2743 2740 ] final  106.29 input  -60.05 | X-H torsion
[ 1366 1361 1360 1357 ] final -106.76 input  -60.09 | X-H torsion
[ 2556 2551 2550 2547 ] final   36.69 input   59.97 | X-H torsion

> <Gold.Protein.ActiveResidues>
 PRO86   VAL89   HIS90   LEU93   THR94   ILE112  MET113  TYR115  VAL116  LEU117 
 THR118  SER119  ARG120  SER121  LEU123  ILE124  GLN192  SER194  PHE198  PHE201 
 ALA202  GLN203  PHE205  THR206  PHE209  PHE210  VAL228  ILE341  ILE343  VAL344 
 ILE345  GLU346  ASP347  TYR348  VAL349  GLN350  HIS351  LEU352  SER353  GLY354 
 TYR355  PHE357  LEU359  LYS360  GLU380  PHE381  ASN382  THR383  LEU384  TYR385 
 HIS386  TRP387  LEU390  VAL434  LEU507  ARG513  ALA516  ILE517  PHE518  GLY519 
 GLU520  THR521  MET522  VAL523  GLU524  VAL525  GLY526  ALA527  PRO528  PHE529 
 SER530  LEU531  LYS532  GLY533  LEU534  MET535  COH609 

> <Gold.Protein.RotatedAtoms>
   18.3655    7.4296    3.3861 H   0  0  0  0  0  0  0  0  0  0  0  0  # atno 1366 bound_to 1361
    5.1813  -10.0892    7.7250 H   0  0  0  0  0  0  0  0  0  0  0  0  # atno 2556 bound_to 2551
   -3.5879    0.0376   -0.1848 H   0  0  0  0  0  0  0  0  0  0  0  0  # atno 2749 bound_to 2745
    0.8793   -1.4950    3.9289 H   0  0  0  0  0  0  0  0  0  0  0  0  # atno 5077 bound_to 5068
   12.9349   -2.0736    9.1638 H   0  0  0  0  0  0  0  0  0  0  0  0  # atno 5157 bound_to 5152
   15.3258    0.2459    4.9857 H   0  0  0  0  0  0  0  0  0  0  0  0  # atno 5185 bound_to 5176
    3.0211   -0.5713    2.4221 H   0  0  0  0  0  0  0  0  0  0  0  0  # atno 5712 bound_to 5703
    5.8103    3.7528    3.5628 H   0  0  0  0  0  0  0  0  0  0  0  0  # atno 8036 bound_to 8031
    1.1424   -2.9270    4.3049 LP  0  0  0  0  0  0  0  0  0  0  0  0  # atno 8267 bound_to 5068
    2.2890   -1.9514    3.6724 LP  0  0  0  0  0  0  0  0  0  0  0  0  # atno 8268 bound_to 5068
   11.7280   -2.9624    9.3000 LP  0  0  0  0  0  0  0  0  0  0  0  0  # atno 8279 bound_to 5152
   11.6353   -1.3323    9.3275 LP  0  0  0  0  0  0  0  0  0  0  0  0  # atno 8280 bound_to 5152
   15.5014   -1.1825    4.5528 LP  0  0  0  0  0  0  0  0  0  0  0  0  # atno 8281 bound_to 5176
   16.7516   -0.2292    4.9941 LP  0  0  0  0  0  0  0  0  0  0  0  0  # atno 8282 bound_to 5176
    1.6487   -0.9300    2.9185 LP  0  0  0  0  0  0  0  0  0  0  0  0  # atno 8283 bound_to 5703
    2.0969    0.6033    2.5794 LP  0  0  0  0  0  0  0  0  0  0  0  0  # atno 8284 bound_to 5703
    4.6129    4.5809    3.1883 LP  0  0  0  0  0  0  0  0  0  0  0  0  # atno 8309 bound_to 8031
    6.0277    5.2362    3.6734 LP  0  0  0  0  0  0  0  0  0  0  0  0  # atno 8310 bound_to 8031
   -4.1578    0.1360    1.2040 LP  0  0  0  0  0  0  0  0  0  0  0  0  # atno 8323 bound_to 2745
   -2.7561   -0.6339    0.8737 LP  0  0  0  0  0  0  0  0  0  0  0  0  # atno 8324 bound_to 2745
   18.7147    6.4706    2.2805 LP  0  0  0  0  0  0  0  0  0  0  0  0  # atno 8335 bound_to 1361
   17.5134    7.5694    2.1539 LP  0  0  0  0  0  0  0  0  0  0  0  0  # atno 8336 bound_to 1361
    4.6112   -8.7047    7.8740 LP  0  0  0  0  0  0  0  0  0  0  0  0  # atno 8342 bound_to 2551
    4.7208   -9.4677    6.4344 LP  0  0  0  0  0  0  0  0  0  0  0  0  # atno 8343 bound_to 2551

