
093|LMW3_p|sdf|93|dock3
  -GOLD-   6 72218363D 1   1.00000     0.00000

 19 19  0  0  0  0  0  0  0  0  2 V2000
    9.4777   -6.2491    3.3419 O   0  0  0  0  0  0  0  0  0  0  0  0
   10.6821   -6.0730    3.3358 C   0  0  0  0  0  0  0  0  0  0  0  0
   11.5378   -7.0956    3.1667 O   0  5  0  0  0  0  0  0  0  0  0  0
   11.3661   -4.7680    3.5053 C   0  0  0  0  0  0  0  0  0  0  0  0
   10.5869   -3.6010    3.4257 C   0  0  0  0  0  0  0  0  0  0  0  0
   12.7457   -4.6807    3.7385 C   0  0  0  0  0  0  0  0  0  0  0  0
   11.1855   -2.3511    3.5788 C   0  0  0  0  0  0  0  0  0  0  0  0
   13.3471   -3.4323    3.8920 C   0  0  0  0  0  0  0  0  0  0  0  0
   10.5510   -1.1368    3.5252 O   0  0  0  0  0  0  0  0  0  0  0  0
   12.5649   -2.2870    3.8109 C   0  0  0  0  0  0  0  0  0  0  0  0
    9.1912   -1.1088    3.9460 C   0  0  0  0  0  0  0  0  0  0  0  0
   13.1808   -1.0750    3.9652 O   0  0  0  0  0  0  0  0  0  0  0  0
    9.5715   -3.6692    3.2539 H   0  0  0  0  0  0  0  0  0  0  0  0
   13.3153   -5.5393    3.7965 H   0  0  0  0  0  0  0  0  0  0  0  0
   14.3621   -3.3599    4.0639 H   0  0  0  0  0  0  0  0  0  0  0  0
    9.1009   -1.5979    4.8934 H   0  0  0  0  0  0  0  0  0  0  0  0
    8.5841   -1.6142    3.2244 H   0  0  0  0  0  0  0  0  0  0  0  0
    8.8667   -0.0932    4.0365 H   0  0  0  0  0  0  0  0  0  0  0  0
   14.0307   -1.0278    4.3570 H   0  0  0  0  0  0  0  0  0  0  0  0
  1  2  2  0  0  0  0
  2  3  1  0  0  0  0
  2  4  1  0  0  0  0
  4  5  2  0  0  0  0
  4  6  1  0  0  0  0
  5  7  1  0  0  0  0
  5 13  1  0  0  0  0
  6  8  2  0  0  0  0
  6 14  1  0  0  0  0
  7  9  1  0  0  0  0
  7 10  2  0  0  0  0
  8 10  1  0  0  0  0
  8 15  1  0  0  0  0
  9 11  1  0  0  0  0
 10 12  1  0  0  0  0
 11 16  1  0  0  0  0
 11 17  1  0  0  0  0
 11 18  1  0  0  0  0
 12 19  1  0  0  0  0
M  CHG  1   3  -1
M  END
>  <Code-name>
093

>  <Compound>
Vanillic acid

>  <Specie>
Lycoperdon molle

>  <Reference>
Barros (2009)

>  <Organism>
Cytotoxic Activity

>  <Smiles>
COc(cc(cc1)C(O)=O)c1O

>  <MMFF94 Energy>
7.4909

>  <Total Molweight>
168.148

>  <Molweight>
168.148

>  <Monoisotopic Mass>
168.042260

>  <cLogP>
0.729

>  <cLogS>
-1.351

>  <H-Acceptors>
4

>  <H-Donors>
2

>  <Total Surface Area>
125.97

>  <Relative PSA>
0.39089

>  <Polar Surface Area>
66.76

>  <Druglikeness>
-1.597

>  <Mutagenic>
high

>  <Tumorigenic>
none

>  <Reproductive Effective>
none

>  <Irritant>
none

>  <Nasty Functions>


>  <Shape Index>
0.58333

>  <Molecular Flexibility>
0.28648

>  <Molecular Complexity>
0.65854

>  <Fragments>
1

>  <Non-H Atoms>
12

>  <Non-C/H Atoms>
4

>  <Metal-Atoms>
0

>  <Electronegative Atoms>
4

>  <Stereo Centers>
0

>  <Rotatable Bonds>
2

>  <Rings Closures>
1

>  <Small Rings>
1

>  <Aromatic Rings>
1

>  <Aromatic Atoms>
6

>  <sp3-Atoms>
4

>  <Symmetric atoms>
0

>  <Amides>
0

>  <Amines>
0

>  <Alkyl-Amines>
0

>  <Aromatic Amines>
0

>  <Aromatic Nitrogens>
0

>  <Basic Nitrogens>
0

>  <Acidic Oxygens>
1

>  <Stereo Configuration>


> <Gold.Version>
5.8.1

> <Gold.Id.Protein>
ID_2|Prot_COX2_5IKQ_Alig|mol2

> <Gold.Goldscore.Fitness>
38.5672

> <Gold.Goldscore.Internal.Vdw>
-1.9796

> <Gold.Goldscore.Internal.Torsion>
-1.3840

> <Gold.Goldscore.External.Vdw>
26.6859

> <Gold.Goldscore.Internal.HBond>
0.0000

> <Gold.Goldscore.External.HBond>
2.0664

> <Gold.Goldscore.Internal.Correction>
-3.1712

> <Gold.Goldscore.Hbonds>
donor molecule, donor type, donor heavy atom, donor atom, acceptor molecule, acceptor atom, score
      P1  H  7855  7866       L1     3  0.01
      L1  H    12    19       P1  5176  1.00

> <Gold.Goldscore.Internal.Vdw.Weighted>
-1.9796

> <Gold.Goldscore.Internal.Torsion.Weighted>
-1.3840

> <Gold.Goldscore.External.Vdw.Weighted>
36.6931

> <Gold.Goldscore.Internal.HBond.Weighted>
0.0000

> <Gold.Goldscore.External.HBond.Weighted>
2.0664

> <Gold.Goldscore.Internal.Correction.Weighted>
-3.1712

> <Gold.Protein.RotatedTorsions>
[ 5077 5068 5067 5065 ] final   78.15 input  179.94 | X-H torsion
[ 5157 5152 5151 5148 ] final  -24.66 input -179.92 | X-H torsion
[ 5185 5176 5175 5173 ] final  -49.39 input -179.99 | X-H torsion
[ 5712 5703 5702 5700 ] final  151.42 input  180.00 | X-H torsion
[ 8036 8031 8030 8027 ] final  174.79 input -179.94 | X-H torsion
[ 2749 2745 2743 2740 ] final  136.79 input  -60.05 | X-H torsion
[ 1366 1361 1360 1357 ] final  152.38 input  -60.09 | X-H torsion
[ 2556 2551 2550 2547 ] final  -59.62 input   59.97 | X-H torsion

> <Gold.Protein.ActiveResidues>
 PRO86   VAL89   HIS90   LEU93   THR94   ILE112  MET113  TYR115  VAL116  LEU117 
 THR118  SER119  ARG120  SER121  LEU123  ILE124  GLN192  SER194  PHE198  PHE201 
 ALA202  GLN203  PHE205  THR206  PHE209  PHE210  VAL228  ILE341  ILE343  VAL344 
 ILE345  GLU346  ASP347  TYR348  VAL349  GLN350  HIS351  LEU352  SER353  GLY354 
 TYR355  PHE357  LEU359  LYS360  GLU380  PHE381  ASN382  THR383  LEU384  TYR385 
 HIS386  TRP387  LEU390  VAL434  LEU507  ARG513  ALA516  ILE517  PHE518  GLY519 
 GLU520  THR521  MET522  VAL523  GLU524  VAL525  GLY526  ALA527  PRO528  PHE529 
 SER530  LEU531  LYS532  GLY533  LEU534  MET535  COH609 

> <Gold.Protein.RotatedAtoms>
   18.7714    6.6253    2.5657 H   0  0  0  0  0  0  0  0  0  0  0  0  # atno 1366 bound_to 1361
    4.7429   -9.0385    8.0258 H   0  0  0  0  0  0  0  0  0  0  0  0  # atno 2556 bound_to 2551
   -3.2306   -0.1730   -0.1596 H   0  0  0  0  0  0  0  0  0  0  0  0  # atno 2749 bound_to 2745
    0.7547   -1.6357    4.0096 H   0  0  0  0  0  0  0  0  0  0  0  0  # atno 5077 bound_to 5068
   11.6096   -2.6969    9.2689 H   0  0  0  0  0  0  0  0  0  0  0  0  # atno 5157 bound_to 5152
   16.5388   -0.6848    4.8805 H   0  0  0  0  0  0  0  0  0  0  0  0  # atno 5185 bound_to 5176
    2.9720    0.0045    2.3582 H   0  0  0  0  0  0  0  0  0  0  0  0  # atno 5712 bound_to 5703
    5.7109    3.7154    3.5286 H   0  0  0  0  0  0  0  0  0  0  0  0  # atno 8036 bound_to 8031
    1.3772   -2.9810    4.2629 LP  0  0  0  0  0  0  0  0  0  0  0  0  # atno 8267 bound_to 5068
    2.2035   -1.7289    3.6178 LP  0  0  0  0  0  0  0  0  0  0  0  0  # atno 8268 bound_to 5068
   11.8805   -1.2170    9.3080 LP  0  0  0  0  0  0  0  0  0  0  0  0  # atno 8279 bound_to 5152
   13.0678   -2.3323    9.1938 LP  0  0  0  0  0  0  0  0  0  0  0  0  # atno 8280 bound_to 5152
   15.7224    0.5605    5.0834 LP  0  0  0  0  0  0  0  0  0  0  0  0  # atno 8281 bound_to 5176
   15.0741   -0.8546    4.5899 LP  0  0  0  0  0  0  0  0  0  0  0  0  # atno 8282 bound_to 5176
    2.2546   -1.2455    2.7843 LP  0  0  0  0  0  0  0  0  0  0  0  0  # atno 8283 bound_to 5703
    1.5499    0.2276    2.7902 LP  0  0  0  0  0  0  0  0  0  0  0  0  # atno 8284 bound_to 5703
    4.6361    4.7122    3.1954 LP  0  0  0  0  0  0  0  0  0  0  0  0  # atno 8309 bound_to 8031
    6.1237    5.1498    3.7073 LP  0  0  0  0  0  0  0  0  0  0  0  0  # atno 8310 bound_to 8031
   -4.3248    0.2907    0.7630 LP  0  0  0  0  0  0  0  0  0  0  0  0  # atno 8323 bound_to 2745
   -3.0170   -0.5364    1.2846 LP  0  0  0  0  0  0  0  0  0  0  0  0  # atno 8324 bound_to 2745
   17.6172    7.3638    1.9442 LP  0  0  0  0  0  0  0  0  0  0  0  0  # atno 8335 bound_to 1361
   18.1254    7.6382    3.4716 LP  0  0  0  0  0  0  0  0  0  0  0  0  # atno 8336 bound_to 1361
    4.5775   -9.1242    6.5327 LP  0  0  0  0  0  0  0  0  0  0  0  0  # atno 8342 bound_to 2551
    5.2789  -10.3052    7.4158 LP  0  0  0  0  0  0  0  0  0  0  0  0  # atno 8343 bound_to 2551

