
098|LMW3_p|sdf|98|dock1
  -GOLD-   6 72218493D 1   1.00000     0.00000

 81 83  0  0  0  0  0  0  0  0  3 V2000
   13.6145    1.7555    2.0091 O   0  0  0  0  0  0  0  0  0  0  0  0
   13.2354    2.5186    2.8816 C   0  0  0  0  0  0  0  0  0  0  0  0
   13.0257    3.8204    2.6079 O   0  5  0  0  0  0  0  0  0  0  0  0
   12.9744    2.1784    4.3327 C   0  0  1  0  0  0  0  0  0  0  0  0
   11.9487    1.0203    4.4290 C   0  0  2  0  0  0  0  0  0  0  0  0
   14.3253    1.8109    4.9873 C   0  0  0  0  0  0  0  0  0  0  0  0
   10.5729    1.1761    3.7112 C   0  0  2  0  0  0  0  0  0  0  0  0
   11.5241    0.7127    5.8950 C   0  0  0  0  0  0  0  0  0  0  0  0
   15.3427    2.9612    4.9253 C   0  0  0  0  0  0  0  0  0  0  0  0
    9.7400    0.0223    4.3810 C   0  0  1  0  0  0  0  0  0  0  0  0
   10.5444    0.9443    2.1968 C   0  0  0  0  0  0  0  0  0  0  0  0
   10.0078    2.6023    3.9961 C   0  0  0  0  0  0  0  0  0  0  0  0
   10.0435    0.2805    5.8665 C   0  0  0  0  0  0  0  0  0  0  0  0
   16.4742    2.7767    5.9204 C   0  0  0  0  0  0  0  0  0  0  0  0
    8.2902    0.0416    3.9036 C   0  0  0  0  0  0  0  0  0  0  0  0
   10.2415   -1.4229    4.0555 C   0  0  0  0  0  0  0  0  0  0  0  0
    9.0950    0.8830    1.6645 C   0  0  0  0  0  0  0  0  0  0  0  0
   16.2018    2.7061    7.2359 C   0  0  0  0  0  0  0  0  0  0  0  0
   17.8826    2.6982    5.3360 C   0  0  0  0  0  0  0  0  0  0  0  0
    7.9997    0.3945    2.6245 C   0  0  0  0  0  0  0  0  0  0  0  0
    7.2604   -0.4512    4.8911 C   0  0  0  0  0  0  0  0  0  0  0  0
   18.3271    3.9498    4.5686 C   0  0  0  0  0  0  0  0  0  0  0  0
   18.0247    1.4654    4.4378 C   0  0  0  0  0  0  0  0  0  0  0  0
    6.5630    0.2706    2.0414 C   0  0  2  0  0  0  0  0  0  0  0  0
    5.8704   -0.7033    4.3209 C   0  0  0  0  0  0  0  0  0  0  0  0
    5.4696    0.2466    3.1821 C   0  0  1  0  0  0  0  0  0  0  0  0
    6.5633   -1.0892    1.2372 C   0  0  0  0  0  0  0  0  0  0  0  0
    6.2490    1.4207    1.0493 C   0  0  0  0  0  0  0  0  0  0  0  0
    4.9571    1.5994    3.7080 C   0  0  0  0  0  0  0  0  0  0  0  0
    6.6995   -1.0080   -0.2902 C   0  0  0  0  0  0  0  0  0  0  0  0
    5.7919    2.4357    4.3542 C   0  0  0  0  0  0  0  0  0  0  0  0
    3.5204    1.9970    3.5164 C   0  0  0  0  0  0  0  0  0  0  0  0
    6.6892   -2.3545   -0.9636 C   0  0  0  0  0  0  0  0  0  0  0  0
    6.8675   -3.4408   -0.4407 O   0  0  0  0  0  0  0  0  0  0  0  0
    6.4902   -2.2611   -2.2925 O   0  5  0  0  0  0  0  0  0  0  0  0
   12.5520    3.0129    4.8524 H   0  0  0  0  0  0  0  0  0  0  0  0
   12.5240    0.2623    3.9398 H   0  0  0  0  0  0  0  0  0  0  0  0
   14.7341    0.9636    4.4775 H   0  0  0  0  0  0  0  0  0  0  0  0
   14.1388    1.5976    6.0191 H   0  0  0  0  0  0  0  0  0  0  0  0
   11.6378    1.5880    6.4999 H   0  0  0  0  0  0  0  0  0  0  0  0
   12.1352   -0.0612    6.3104 H   0  0  0  0  0  0  0  0  0  0  0  0
   14.8387    3.8797    5.1424 H   0  0  0  0  0  0  0  0  0  0  0  0
   15.7666    2.9737    3.9430 H   0  0  0  0  0  0  0  0  0  0  0  0
   11.0359    0.0197    1.9765 H   0  0  0  0  0  0  0  0  0  0  0  0
   11.0443    1.7620    1.7209 H   0  0  0  0  0  0  0  0  0  0  0  0
    8.9629    2.6243    3.7667 H   0  0  0  0  0  0  0  0  0  0  0  0
   10.5215    3.3175    3.3882 H   0  0  0  0  0  0  0  0  0  0  0  0
   10.1515    2.8432    5.0286 H   0  0  0  0  0  0  0  0  0  0  0  0
    9.4162    1.0579    6.2501 H   0  0  0  0  0  0  0  0  0  0  0  0
    9.8623   -0.5825    6.4724 H   0  0  0  0  0  0  0  0  0  0  0  0
   10.0526   -1.6423    3.0255 H   0  0  0  0  0  0  0  0  0  0  0  0
    9.7227   -2.1275    4.6713 H   0  0  0  0  0  0  0  0  0  0  0  0
   11.2922   -1.4874    4.2472 H   0  0  0  0  0  0  0  0  0  0  0  0
    9.0932    0.2281    0.8184 H   0  0  0  0  0  0  0  0  0  0  0  0
    8.8396    1.9017    1.4602 H   0  0  0  0  0  0  0  0  0  0  0  0
   15.2254    2.7659    7.5647 H   0  0  0  0  0  0  0  0  0  0  0  0
   16.9692    2.5920    7.9164 H   0  0  0  0  0  0  0  0  0  0  0  0
   18.5322    2.6229    6.1829 H   0  0  0  0  0  0  0  0  0  0  0  0
    7.1705    0.2809    5.6662 H   0  0  0  0  0  0  0  0  0  0  0  0
    7.6136   -1.4016    5.2330 H   0  0  0  0  0  0  0  0  0  0  0  0
   19.3191    3.8052    4.1945 H   0  0  0  0  0  0  0  0  0  0  0  0
   18.3132    4.7945    5.2253 H   0  0  0  0  0  0  0  0  0  0  0  0
   17.6591    4.1228    3.7508 H   0  0  0  0  0  0  0  0  0  0  0  0
   17.4769    0.6500    4.8621 H   0  0  0  0  0  0  0  0  0  0  0  0
   19.0579    1.1985    4.3593 H   0  0  0  0  0  0  0  0  0  0  0  0
   17.6386    1.6866    3.4648 H   0  0  0  0  0  0  0  0  0  0  0  0
    5.1591   -0.5950    5.1129 H   0  0  0  0  0  0  0  0  0  0  0  0
    5.8851   -1.6891    3.9053 H   0  0  0  0  0  0  0  0  0  0  0  0
    4.6067   -0.1372    2.6794 H   0  0  0  0  0  0  0  0  0  0  0  0
    5.6414   -1.5884    1.4508 H   0  0  0  0  0  0  0  0  0  0  0  0
    7.4455   -1.5992    1.5633 H   0  0  0  0  0  0  0  0  0  0  0  0
    6.9510    1.3971    0.2422 H   0  0  0  0  0  0  0  0  0  0  0  0
    6.3210    2.3596    1.5574 H   0  0  0  0  0  0  0  0  0  0  0  0
    5.2582    1.2987    0.6639 H   0  0  0  0  0  0  0  0  0  0  0  0
    7.6226   -0.5194   -0.5229 H   0  0  0  0  0  0  0  0  0  0  0  0
    5.8521   -0.4659   -0.6546 H   0  0  0  0  0  0  0  0  0  0  0  0
    6.7806    2.1736    4.4918 H   0  0  0  0  0  0  0  0  0  0  0  0
    5.4429    3.3387    4.7118 H   0  0  0  0  0  0  0  0  0  0  0  0
    3.3394    2.1915    2.4799 H   0  0  0  0  0  0  0  0  0  0  0  0
    3.3156    2.8793    4.0860 H   0  0  0  0  0  0  0  0  0  0  0  0
    2.8836    1.2032    3.8468 H   0  0  0  0  0  0  0  0  0  0  0  0
  1  2  2  0  0  0  0
  2  3  1  0  0  0  0
  2  4  1  0  0  0  0
  4  5  1  0  0  0  0
  4  6  1  0  0  0  0
  4 36  1  0  0  0  0
  5  7  1  0  0  0  0
  5  8  1  0  0  0  0
  5 37  1  0  0  0  0
  6  9  1  0  0  0  0
  6 38  1  0  0  0  0
  6 39  1  0  0  0  0
  7 10  1  0  0  0  0
  7 11  1  0  0  0  0
  7 12  1  0  0  0  0
  8 13  1  0  0  0  0
  8 40  1  0  0  0  0
  8 41  1  0  0  0  0
  9 14  1  0  0  0  0
  9 42  1  0  0  0  0
  9 43  1  0  0  0  0
 10 15  1  0  0  0  0
 10 16  1  0  0  0  0
 10 13  1  0  0  0  0
 11 17  1  0  0  0  0
 11 44  1  0  0  0  0
 11 45  1  0  0  0  0
 12 46  1  0  0  0  0
 12 47  1  0  0  0  0
 12 48  1  0  0  0  0
 13 49  1  0  0  0  0
 13 50  1  0  0  0  0
 14 18  2  0  0  0  0
 14 19  1  0  0  0  0
 15 20  2  0  0  0  0
 15 21  1  0  0  0  0
 16 51  1  0  0  0  0
 16 52  1  0  0  0  0
 16 53  1  0  0  0  0
 17 20  1  0  0  0  0
 17 54  1  0  0  0  0
 17 55  1  0  0  0  0
 18 56  1  0  0  0  0
 18 57  1  0  0  0  0
 19 22  1  0  0  0  0
 19 23  1  0  0  0  0
 19 58  1  0  0  0  0
 20 24  1  0  0  0  0
 21 25  1  0  0  0  0
 21 59  1  0  0  0  0
 21 60  1  0  0  0  0
 22 61  1  0  0  0  0
 22 62  1  0  0  0  0
 22 63  1  0  0  0  0
 23 64  1  0  0  0  0
 23 65  1  0  0  0  0
 23 66  1  0  0  0  0
 24 26  1  0  0  0  0
 24 27  1  0  0  0  0
 24 28  1  0  0  0  0
 25 26  1  0  0  0  0
 25 67  1  0  0  0  0
 25 68  1  0  0  0  0
 26 29  1  0  0  0  0
 26 69  1  0  0  0  0
 27 30  1  0  0  0  0
 27 70  1  0  0  0  0
 27 71  1  0  0  0  0
 28 72  1  0  0  0  0
 28 73  1  0  0  0  0
 28 74  1  0  0  0  0
 29 31  2  0  0  0  0
 29 32  1  0  0  0  0
 30 33  1  0  0  0  0
 30 75  1  0  0  0  0
 30 76  1  0  0  0  0
 31 77  1  0  0  0  0
 31 78  1  0  0  0  0
 32 79  1  0  0  0  0
 32 80  1  0  0  0  0
 32 81  1  0  0  0  0
 33 34  2  0  0  0  0
 33 35  1  0  0  0  0
M  CHG  1   3  -1
M  CHG  1  35  -1
M  END
>  <Code-name>
098

>  <Compound>
Piptolinic acid B

>  <Specie>
Piptoporus betulinus

>  <Reference>
Tohtahon (2017) e GrÃ¼ndemann (2020)

>  <Organism>
Cytotoxic Activity

>  <Smiles>
CC(C)C(CC[C@H]([C@@H](CC1)[C@@](C)(CC2)[C@]1(C)C(CC1)=C2[C@@](C)(CCC(O)=O)[C@@H]1C(C)=C)C(O)=O)=C

>  <MMFF94 Energy>
66.471

>  <Total Molweight>
484.718

>  <Molweight>
484.718

>  <Monoisotopic Mass>
484.355260

>  <cLogP>
7.7986

>  <cLogS>
-6.039

>  <H-Acceptors>
4

>  <H-Donors>
2

>  <Total Surface Area>
382.01

>  <Relative PSA>
0.13686

>  <Polar Surface Area>
74.6

>  <Druglikeness>
-22.845

>  <Mutagenic>
none

>  <Tumorigenic>
none

>  <Reproductive Effective>
none

>  <Irritant>
none

>  <Nasty Functions>


>  <Shape Index>
0.45714

>  <Molecular Flexibility>
0.45512

>  <Molecular Complexity>
0.99595

>  <Fragments>
1

>  <Non-H Atoms>
35

>  <Non-C/H Atoms>
4

>  <Metal-Atoms>
0

>  <Electronegative Atoms>
4

>  <Stereo Centers>
6

>  <Rotatable Bonds>
10

>  <Rings Closures>
3

>  <Small Rings>
3

>  <Aromatic Rings>
0

>  <Aromatic Atoms>
0

>  <sp3-Atoms>
25

>  <Symmetric atoms>
1

>  <Amides>
0

>  <Amines>
0

>  <Alkyl-Amines>
0

>  <Aromatic Amines>
0

>  <Aromatic Nitrogens>
0

>  <Basic Nitrogens>
0

>  <Acidic Oxygens>
2

>  <Stereo Configuration>
this enantiomer

> <Gold.Version>
5.8.1

> <Gold.Id.Protein>
ID_2|Prot_COX2_5IKQ_Alig|mol2

> <Gold.Goldscore.Fitness>
-89.8085

> <Gold.Goldscore.Internal.Vdw>
-19.2927

> <Gold.Goldscore.Internal.Torsion>
-9.6044

> <Gold.Goldscore.External.Vdw>
-59.8391

> <Gold.Goldscore.Internal.HBond>
0.0000

> <Gold.Goldscore.External.HBond>
0.0000

> <Gold.Goldscore.Internal.Correction>
-21.3674

> <Gold.Goldscore.Internal.Vdw.Weighted>
-19.2927

> <Gold.Goldscore.Internal.Torsion.Weighted>
-9.6044

> <Gold.Goldscore.External.Vdw.Weighted>
-82.2787

> <Gold.Goldscore.Internal.HBond.Weighted>
0.0000

> <Gold.Goldscore.External.HBond.Weighted>
0.0000

> <Gold.Goldscore.Internal.Correction.Weighted>
-21.3674

> <Gold.Protein.RotatedTorsions>
[ 5077 5068 5067 5065 ] final -173.22 input  179.94 | X-H torsion
[ 5157 5152 5151 5148 ] final -169.76 input -179.92 | X-H torsion
[ 5185 5176 5175 5173 ] final   24.90 input -179.99 | X-H torsion
[ 5712 5703 5702 5700 ] final   31.40 input  180.00 | X-H torsion
[ 8036 8031 8030 8027 ] final   20.30 input -179.94 | X-H torsion
[ 2749 2745 2743 2740 ] final   18.78 input  -60.05 | X-H torsion
[ 1366 1361 1360 1357 ] final  163.97 input  -60.09 | X-H torsion
[ 2556 2551 2550 2547 ] final   12.13 input   59.97 | X-H torsion

> <Gold.Protein.ActiveResidues>
 PRO86   VAL89   HIS90   LEU93   THR94   ILE112  MET113  TYR115  VAL116  LEU117 
 THR118  SER119  ARG120  SER121  LEU123  ILE124  GLN192  SER194  PHE198  PHE201 
 ALA202  GLN203  PHE205  THR206  PHE209  PHE210  VAL228  ILE341  ILE343  VAL344 
 ILE345  GLU346  ASP347  TYR348  VAL349  GLN350  HIS351  LEU352  SER353  GLY354 
 TYR355  PHE357  LEU359  LYS360  GLU380  PHE381  ASN382  THR383  LEU384  TYR385 
 HIS386  TRP387  LEU390  VAL434  LEU507  ARG513  ALA516  ILE517  PHE518  GLY519 
 GLU520  THR521  MET522  VAL523  GLU524  VAL525  GLY526  ALA527  PRO528  PHE529 
 SER530  LEU531  LYS532  GLY533  LEU534  MET535  COH609 

> <Gold.Protein.RotatedAtoms>
   18.8097    6.6636    2.7159 H   0  0  0  0  0  0  0  0  0  0  0  0  # atno 1366 bound_to 1361
    5.1278   -9.8800    7.9827 H   0  0  0  0  0  0  0  0  0  0  0  0  # atno 2556 bound_to 2551
   -4.1740    0.2605    0.7098 H   0  0  0  0  0  0  0  0  0  0  0  0  # atno 2749 bound_to 2745
    1.9969   -1.6437    3.6918 H   0  0  0  0  0  0  0  0  0  0  0  0  # atno 5077 bound_to 5068
   12.2612   -1.3369    9.2299 H   0  0  0  0  0  0  0  0  0  0  0  0  # atno 5157 bound_to 5152
   15.7154   -1.1026    4.6502 H   0  0  0  0  0  0  0  0  0  0  0  0  # atno 5185 bound_to 5176
    2.2518   -1.0978    2.7183 H   0  0  0  0  0  0  0  0  0  0  0  0  # atno 5712 bound_to 5703
    5.0251    5.0696    3.2810 H   0  0  0  0  0  0  0  0  0  0  0  0  # atno 8036 bound_to 8031
    0.5369   -1.7182    4.0442 LP  0  0  0  0  0  0  0  0  0  0  0  0  # atno 8267 bound_to 5068
    1.5563   -2.9821    4.2170 LP  0  0  0  0  0  0  0  0  0  0  0  0  # atno 8268 bound_to 5068
   12.8897   -2.7041    9.2044 LP  0  0  0  0  0  0  0  0  0  0  0  0  # atno 8279 bound_to 5152
   11.2794   -2.4718    9.3440 LP  0  0  0  0  0  0  0  0  0  0  0  0  # atno 8280 bound_to 5152
   16.6947   -0.0324    5.0431 LP  0  0  0  0  0  0  0  0  0  0  0  0  # atno 8281 bound_to 5176
   15.0904    0.2399    4.9067 LP  0  0  0  0  0  0  0  0  0  0  0  0  # atno 8282 bound_to 5176
    1.5515    0.2301    2.7894 LP  0  0  0  0  0  0  0  0  0  0  0  0  # atno 8283 bound_to 5703
    3.1174    0.0751    2.3529 LP  0  0  0  0  0  0  0  0  0  0  0  0  # atno 8284 bound_to 5703
    6.3744    4.6548    3.7978 LP  0  0  0  0  0  0  0  0  0  0  0  0  # atno 8309 bound_to 8031
    5.2083    3.5825    3.4020 LP  0  0  0  0  0  0  0  0  0  0  0  0  # atno 8310 bound_to 8031
   -3.0379   -0.5268    1.3039 LP  0  0  0  0  0  0  0  0  0  0  0  0  # atno 8323 bound_to 2745
   -3.1740   -0.2380   -0.2976 LP  0  0  0  0  0  0  0  0  0  0  0  0  # atno 8324 bound_to 2745
   17.7125    7.2261    1.8535 LP  0  0  0  0  0  0  0  0  0  0  0  0  # atno 8335 bound_to 1361
   17.9842    7.7302    3.3827 LP  0  0  0  0  0  0  0  0  0  0  0  0  # atno 8336 bound_to 1361
    4.4989   -8.5999    7.5031 LP  0  0  0  0  0  0  0  0  0  0  0  0  # atno 8342 bound_to 2551
    4.8971   -9.8228    6.4969 LP  0  0  0  0  0  0  0  0  0  0  0  0  # atno 8343 bound_to 2551

